LIG
     RDKit          3D

 60 63  0  0  0  0  0  0  0  0999 V2000
  -12.7520    3.8660  -26.1230 O   0  0  0  0  0  0  0  0  0  0  0  0
  -13.7970    4.3790  -26.4440 C   0  0  0  0  0  0  0  0  0  0  0  0
  -14.4030    5.1730  -25.7400 O   0  0  0  0  0  0  0  0  0  0  0  0
  -12.6780    6.7220  -29.4130 C   0  0  0  0  0  0  0  0  0  0  0  0
  -13.7520    6.4460  -28.6100 C   0  0  0  0  0  0  0  0  0  0  0  0
  -13.9550    7.4910  -27.6530 C   0  0  0  0  0  0  0  0  0  0  0  0
  -12.9520    8.4080  -27.6780 C   0  0  0  0  0  0  0  0  0  0  0  0
  -11.8610    8.1250  -28.9260 S   0  0  0  0  0  0  0  0  0  0  0  0
  -16.0930    5.3820  -28.8660 C   0  0  0  0  0  0  0  0  0  0  0  0
  -14.5750    5.2010  -28.7790 C   0  0  2  0  0  0  0  0  0  0  0  0
  -14.3860    3.9960  -27.7980 C   0  0  2  0  0  0  0  0  0  0  0  0
  -15.7830    3.3410  -27.7030 C   0  0  1  0  0  0  0  0  0  0  0  0
  -16.5840    3.9390  -28.8560 C   0  0  0  0  0  0  0  0  0  0  0  0
  -25.0120    4.7050  -26.5050 C   0  0  0  0  0  0  0  0  0  0  0  0
  -16.5370    0.3230  -26.0270 C   0  0  0  0  0  0  0  0  0  0  0  0
  -22.5170    2.3380  -28.1250 C   0  0  0  0  0  0  0  0  0  0  0  0
  -23.0940    3.3250  -27.0760 C   0  0  0  0  0  0  0  0  0  0  0  0
  -17.0710    1.1470  -27.0760 N   0  0  0  0  0  0  0  0  0  0  0  0
  -26.2990    3.7380  -30.4700 O   0  0  0  0  0  0  0  0  0  0  0  0
  -25.7330    1.9620  -26.0910 O   0  0  0  0  0  0  0  0  0  0  0  0
  -25.5940    2.5920  -27.2900 C   0  0  0  0  0  0  0  0  0  0  0  0
  -24.5520    3.6160  -27.4960 C   0  0  1  0  0  0  0  0  0  0  0  0
  -24.8620    4.3840  -28.5880 N   0  0  0  0  0  0  0  0  0  0  0  0
  -26.0400    3.6170  -29.1510 C   0  0  0  0  0  0  0  0  0  0  0  0
  -26.1140    2.1800  -28.6310 N   0  0  0  0  0  0  0  0  0  0  0  0
  -20.8040    0.8030  -27.1560 C   0  0  0  0  0  0  0  0  0  0  0  0
  -19.4860    0.4470  -26.8700 C   0  0  0  0  0  0  0  0  0  0  0  0
  -18.4700    1.3210  -27.2970 C   0  0  0  0  0  0  0  0  0  0  0  0
  -18.8040    2.5210  -27.9370 C   0  0  0  0  0  0  0  0  0  0  0  0
  -20.1340    2.8170  -28.2370 C   0  0  0  0  0  0  0  0  0  0  0  0
  -21.0660    1.9620  -27.8550 C   0  0  0  0  0  0  0  0  0  0  0  0
  -16.4270    2.2440  -27.3895 N   0  0  0  0  0  0  0  0  0  0  0  0
  -15.2568    5.5626  -26.0552 H   0  0  0  0  0  0  0  0  0  0  0  0
  -12.3801    6.1052  -30.2737 H   0  0  0  0  0  0  0  0  0  0  0  0
  -14.8209    7.5455  -26.9768 H   0  0  0  0  0  0  0  0  0  0  0  0
  -12.8640    9.2399  -26.9637 H   0  0  0  0  0  0  0  0  0  0  0  0
  -16.6776    6.3122  -28.9214 H   0  0  0  0  0  0  0  0  0  0  0  0
  -16.0334    5.3541  -29.9640 H   0  0  0  0  0  0  0  0  0  0  0  0
  -14.1173    4.9495  -29.7471 H   0  0  0  0  0  0  0  0  0  0  0  0
  -13.6323    3.2909  -28.1786 H   0  0  0  0  0  0  0  0  0  0  0  0
  -15.5724    3.3816  -26.6241 H   0  0  0  0  0  0  0  0  0  0  0  0
  -17.3238    3.4545  -29.5102 H   0  0  0  0  0  0  0  0  0  0  0  0
  -15.7827    3.6615  -29.5566 H   0  0  0  0  0  0  0  0  0  0  0  0
  -24.8621    4.3501  -25.4747 H   0  0  0  0  0  0  0  0  0  0  0  0
  -24.4236    5.6202  -26.6668 H   0  0  0  0  0  0  0  0  0  0  0  0
  -26.0783    4.9212  -26.6668 H   0  0  0  0  0  0  0  0  0  0  0  0
  -16.8125    0.7481  -25.0506 H   0  0  0  0  0  0  0  0  0  0  0  0
  -16.9486   -0.6934  -26.1137 H   0  0  0  0  0  0  0  0  0  0  0  0
  -15.4411    0.2835  -26.1137 H   0  0  0  0  0  0  0  0  0  0  0  0
  -23.1243    1.4209  -28.1144 H   0  0  0  0  0  0  0  0  0  0  0  0
  -22.5495    2.8414  -29.1025 H   0  0  0  0  0  0  0  0  0  0  0  0
  -23.0714    2.8701  -26.0747 H   0  0  0  0  0  0  0  0  0  0  0  0
  -22.5014    4.2508  -27.0355 H   0  0  0  0  0  0  0  0  0  0  0  0
  -24.4159    5.2465  -28.9316 H   0  0  0  0  0  0  0  0  0  0  0  0
  -26.4067    1.2822  -29.0423 H   0  0  0  0  0  0  0  0  0  0  0  0
  -21.6328    0.1602  -26.8244 H   0  0  0  0  0  0  0  0  0  0  0  0
  -19.2500   -0.4823  -26.3308 H   0  0  0  0  0  0  0  0  0  0  0  0
  -18.0118    3.2355  -28.2052 H   0  0  0  0  0  0  0  0  0  0  0  0
  -20.3996    3.7377  -28.7772 H   0  0  0  0  0  0  0  0  0  0  0  0
    0.0000    0.0000    0.0000 H   0  0  0  0  0  0  0  0  0  0  0  0
  2  1  2  0
  3  2  1  0
  4  5  2  0
  4  8  1  0
  5  6  1  0
  5 10  1  0
  6  7  2  0
  7  8  1  0
  9 10  1  0
  9 13  1  0
 10 11  1  0
 11 12  1  0
 11  2  1  0
 12 13  1  0
 17 16  1  0
 18 15  1  0
 21 22  1  0
 21 25  1  0
 21 20  2  0
 22 17  1  1
 22 14  1  0
 22 23  1  0
 23 24  1  0
 24 25  1  0
 24 19  2  0
 26 31  2  0
 26 27  1  0
 27 28  2  0
 28 29  1  0
 28 18  1  0
 29 30  2  0
 30 31  1  0
 31 16  1  0
 32 12  1  0
 32 18  1  0
  3 33  1  0
  4 34  1  0
  6 35  1  0
  7 36  1  0
  9 37  1  0
  9 38  1  0
 10 39  1  6
 11 40  1  6
 12 41  1  1
 13 42  1  0
 13 43  1  0
 14 44  1  0
 14 45  1  0
 14 46  1  0
 15 47  1  0
 15 48  1  0
 15 49  1  0
 16 50  1  0
 16 51  1  0
 17 52  1  0
 17 53  1  0
 23 54  1  0
 25 55  1  0
 26 56  1  0
 27 57  1  0
 29 58  1  0
 30 59  1  0
 32 60  1  0
M  END
