8v7r_A_703_1_7g9m+A+704+1__LIG
     RDKit          3D

 18 19  0  0  0  0  0  0  0  0999 V2000
  -25.0120    4.7050  -26.5050 C   0  0  0  0  0  0  0  0  0  0  0  0
  -25.5940    2.5920  -27.2900 C   0  0  0  0  0  0  0  0  0  0  0  0
  -20.8040    0.8030  -27.1560 C   0  0  0  0  0  0  0  0  0  0  0  0
  -16.5370    0.3230  -26.0270 C   0  0  0  0  0  0  0  0  0  0  0  0
  -18.4700    1.3210  -27.2970 C   0  0  0  0  0  0  0  0  0  0  0  0
  -18.8040    2.5210  -27.9370 C   0  0  0  0  0  0  0  0  0  0  0  0
  -20.1340    2.8170  -28.2370 C   0  0  0  0  0  0  0  0  0  0  0  0
  -21.0660    1.9620  -27.8550 C   0  0  0  0  0  0  0  0  0  0  0  0
  -22.5170    2.3380  -28.1250 C   0  0  0  0  0  0  0  0  0  0  0  0
  -23.0940    3.3250  -27.0760 C   0  0  0  0  0  0  0  0  0  0  0  0
  -24.5520    3.6160  -27.4960 C   0  0  2  0  0  0  0  0  0  0  0  0
  -26.0400    3.6170  -29.1510 C   0  0  0  0  0  0  0  0  0  0  0  0
  -19.4860    0.4470  -26.8700 C   0  0  0  0  0  0  0  0  0  0  0  0
  -24.8620    4.3840  -28.5880 N   0  0  0  0  0  0  0  0  0  0  0  0
  -26.1140    2.1800  -28.6310 N   0  0  0  0  0  0  0  0  0  0  0  0
  -17.0710    1.1470  -27.0760 O   0  0  0  0  0  0  0  0  0  0  0  0
  -26.2990    3.7380  -30.4700 O   0  0  0  0  0  0  0  0  0  0  0  0
  -25.7330    1.9620  -26.0910 O   0  0  0  0  0  0  0  0  0  0  0  0
 16  4  1  0
  5 16  1  0
  6  5  1  0
  7  6  2  0
  8  7  1  0
 10  9  1  0
 11 10  1  0
 11  1  1  1
 14 11  1  0
 12 14  1  0
 17 12  2  0
 15 12  1  0
  2 15  1  0
 18  2  2  0
  9  8  1  0
  3  8  2  0
 13  3  1  0
  5 13  2  0
 11  2  1  0
M  END
$$$$
