LIG
     RDKit          3D

 32 33  0  0  0  0  0  0  0  0999 V2000
  -17.3073    9.4419  -25.9786 C   0  0  0  0  0  0  0  0  0  0  0  0
  -18.4860    8.5184  -26.2902 C   0  0  0  0  0  0  0  0  0  0  0  0
  -15.4542   11.4127  -24.3196 C   0  0  0  0  0  0  0  0  0  0  0  0
  -14.7047   11.2784  -25.6454 C   0  0  0  0  0  0  0  0  0  0  0  0
  -14.9538   12.5828  -23.5573 N   0  0  0  0  0  0  0  0  0  0  0  0
  -13.9416   12.1917  -25.9894 O   0  0  0  0  0  0  0  0  0  0  0  0
  -14.5290    6.8446  -29.2654 C   0  0  0  0  0  0  0  0  0  0  0  0
  -13.1761    7.2186  -29.8672 C   0  0  0  0  0  0  0  0  0  0  0  0
  -12.4831    8.1086  -28.8324 C   0  0  0  0  0  0  0  0  0  0  0  0
  -13.6424    8.6293  -28.0711 C   0  0  0  0  0  0  0  0  0  0  0  0
  -14.8013    7.9838  -28.4100 N   0  0  0  0  0  0  0  0  0  0  0  0
  -15.9655    8.2624  -27.7305 C   0  0  0  0  0  0  0  0  0  0  0  0
  -16.0528    9.2243  -26.7769 C   0  0  0  0  0  0  0  0  0  0  0  0
  -14.8331   10.0291  -26.4988 C   0  0  0  0  0  0  0  0  0  0  0  0
  -13.6727    9.6674  -27.0920 C   0  0  0  0  0  0  0  0  0  0  0  0
  -17.6485   10.4725  -26.1316 H   0  0  0  0  0  0  0  0  0  0  0  0
  -17.0790    9.3138  -24.9146 H   0  0  0  0  0  0  0  0  0  0  0  0
  -19.3331    8.7693  -25.6427 H   0  0  0  0  0  0  0  0  0  0  0  0
  -18.8212    8.6314  -27.3267 H   0  0  0  0  0  0  0  0  0  0  0  0
  -18.2339    7.4682  -26.1097 H   0  0  0  0  0  0  0  0  0  0  0  0
  -16.5138   11.5832  -24.5158 H   0  0  0  0  0  0  0  0  0  0  0  0
  -15.3171   10.5094  -23.7201 H   0  0  0  0  0  0  0  0  0  0  0  0
  -13.9575   12.4479  -23.3654 H   0  0  0  0  0  0  0  0  0  0  0  0
  -14.9497   13.3758  -24.2069 H   0  0  0  0  0  0  0  0  0  0  0  0
  -15.2962    6.6841  -30.0232 H   0  0  0  0  0  0  0  0  0  0  0  0
  -14.4418    5.9335  -28.6611 H   0  0  0  0  0  0  0  0  0  0  0  0
  -12.6005    6.3292  -30.1112 H   0  0  0  0  0  0  0  0  0  0  0  0
  -13.3213    7.8000  -30.7847 H   0  0  0  0  0  0  0  0  0  0  0  0
  -11.8218    7.5312  -28.1900 H   0  0  0  0  0  0  0  0  0  0  0  0
  -11.9029    8.9015  -29.3138 H   0  0  0  0  0  0  0  0  0  0  0  0
  -16.7887    7.6140  -28.0129 H   0  0  0  0  0  0  0  0  0  0  0  0
  -12.7377   10.1563  -26.8830 H   0  0  0  0  0  0  0  0  0  0  0  0
  2  1  1  0
  4  3  1  0
  5  3  1  0
  6  4  2  0
  7  8  1  0
  7 11  1  0
  8  9  1  0
  9 10  1  0
 10 11  4  0
 12 13  2  0
 13 14  1  0
 14 15  2  0
 10 15  1  0
 11 12  1  0
  1 13  1  0
 14  4  1  0
  1 16  1  0
  1 17  1  0
  2 18  1  0
  2 19  1  0
  2 20  1  0
  3 21  1  0
  3 22  1  0
  5 23  1  0
  5 24  1  0
  7 25  1  0
  7 26  1  0
  8 27  1  0
  8 28  1  0
  9 29  1  0
  9 30  1  0
 12 31  1  0
 15 32  1  0
M  END
