8v7u_A_812_1_7g9m+A+704+1__LIG
     RDKit          3D

 15 16  0  0  0  0  0  0  0  0999 V2000
  -12.7730    7.6930  -29.0340 C   0  0  0  0  0  0  0  0  0  0  0  0
  -14.0180    9.7390  -29.3980 C   0  0  0  0  0  0  0  0  0  0  0  0
  -15.6770    1.1200  -25.3200 C   0  0  0  0  0  0  0  0  0  0  0  0
  -15.9760    2.1570  -26.3910 C   0  0  0  0  0  0  0  0  0  0  0  0
  -15.8010    3.7350  -27.8570 C   0  0  0  0  0  0  0  0  0  0  0  0
  -13.9560    5.3710  -28.6710 C   0  0  0  0  0  0  0  0  0  0  0  0
  -13.5780    6.5020  -29.6670 C   0  0  0  0  0  0  0  0  0  0  0  0
  -13.1820    7.9550  -27.8170 C   0  0  0  0  0  0  0  0  0  0  0  0
  -13.9820    9.3500  -27.8900 C   0  0  0  0  0  0  0  0  0  0  0  0
  -12.9880    9.0780  -29.9460 C   0  0  0  0  0  0  0  0  0  0  0  0
  -17.1660    2.3920  -26.9330 N   0  0  0  0  0  0  0  0  0  0  0  0
  -15.3130    4.8040  -28.7430 N   0  0  0  0  0  0  0  0  0  0  0  0
  -15.0920    3.0240  -26.9870 N   0  0  0  0  0  0  0  0  0  0  0  0
  -17.0510    3.3480  -27.8160 O   0  0  0  0  0  0  0  0  0  0  0  0
  -13.1740    4.9710  -27.8840 O   0  0  0  0  0  0  0  0  0  0  0  0
  4  3  1  0
 11  4  2  0
 14 11  1  0
  5 14  1  0
  6 12  1  0
 15  6  2  0
  7  6  1  0
  1  7  1  0
  8  1  1  0
  9  8  1  0
  2  9  1  0
 10  2  1  0
 12  5  1  0
 13  5  2  0
  4 13  1  0
  1 10  1  0
M  END
$$$$
