5rho_A_705_1_5rhu+A+705+1__LIG
     RDKit          3D

 14 14  0  0  0  0  0  0  0  0999 V2000
   -8.4400   24.4110  -20.5230 C   0  0  0  0  0  0  0  0  0  0  0  0
   -9.3500   23.7830  -21.3550 C   0  0  0  0  0  0  0  0  0  0  0  0
  -10.5470   23.3100  -20.8580 C   0  0  0  0  0  0  0  0  0  0  0  0
  -10.8770   23.4340  -19.5050 C   0  0  0  0  0  0  0  0  0  0  0  0
  -12.1760   22.8960  -18.9720 C   0  0  0  0  0  0  0  0  0  0  0  0
  -10.1040   24.4430  -17.2690 N   0  0  0  0  0  0  0  0  0  0  0  0
  -12.5020   25.2960  -17.3790 C   0  0  0  0  0  0  0  0  0  0  0  0
  -11.0980   25.6380  -15.5860 O   0  0  0  0  0  0  0  0  0  0  0  0
  -11.2180   25.0950  -16.6610 C   0  0  0  0  0  0  0  0  0  0  0  0
   -9.9340   24.1060  -18.6500 C   0  0  0  0  0  0  0  0  0  0  0  0
   -8.7290   24.5790  -19.1840 C   0  0  0  0  0  0  0  0  0  0  0  0
  -12.7460   21.6400  -19.5420 C   0  0  0  0  0  0  0  0  0  0  0  0
  -13.8340   21.1830  -19.2540 O   0  0  0  0  0  0  0  0  0  0  0  0
  -11.9850   20.9910  -20.4400 O   0  0  0  0  0  0  0  0  0  0  0  0
  7  9  1  0
  8  9  2  0
  9  6  1  0
  6 10  1  0
 10 11  1  0
 11  1  2  0
  1  2  1  0
  2  3  2  0
  3  4  1  0
 10  4  2  0
  4  5  1  0
  5 12  1  0
 12 13  2  0
 14 12  1  0
M  END
$$$$
