5rhl_A_705_1_5rhu+A+705+1__LIG
     RDKit          3D

 15 16  0  0  0  0  0  0  0  0999 V2000
  -13.0140   22.4110  -18.9020 N   0  0  0  0  0  0  0  0  0  0  0  0
  -10.8370   21.7800  -21.7760 C   0  0  0  0  0  0  0  0  0  0  0  0
   -9.7720   22.5740  -21.3660 C   0  0  0  0  0  0  0  0  0  0  0  0
   -9.7640   23.1990  -20.1550 C   0  0  0  0  0  0  0  0  0  0  0  0
  -10.8330   23.0840  -19.3610 C   0  0  0  0  0  0  0  0  0  0  0  0
  -11.9660   22.2940  -19.7530 C   0  0  0  0  0  0  0  0  0  0  0  0
  -14.3330   23.2030  -16.9130 C   0  0  0  0  0  0  0  0  0  0  0  0
  -14.6290   19.7940  -22.7900 C   0  0  0  0  0  0  0  0  0  0  0  0
  -14.2140   20.3060  -21.3910 C   0  0  0  0  0  0  0  0  0  0  0  0
  -12.7610   20.4600  -21.3810 O   0  0  0  0  0  0  0  0  0  0  0  0
  -11.9360   21.5790  -20.9720 C   0  0  0  0  0  0  0  0  0  0  0  0
  -13.0140   23.2700  -17.6790 C   0  0  0  0  0  0  0  0  0  0  0  0
  -15.4310   22.8690  -17.8210 N   0  0  0  0  0  0  0  0  0  0  0  0
  -15.1690   21.5620  -18.4550 C   0  0  0  0  0  0  0  0  0  0  0  0
  -13.6860   21.2320  -18.5500 C   0  0  0  0  0  0  0  0  0  0  0  0
  3  2  2  0
  3  4  1  0
  2 11  1  0
  9  8  1  0
  9 10  1  0
  4  5  2  0
 11 10  1  0
 11  6  2  0
  5  6  1  0
  6  1  1  0
  1 15  1  0
  1 12  1  0
 15 14  1  0
 12  7  1  0
 14 13  1  0
  7 13  1  0
M  END
$$$$
