7g9p_A_705_1_5rhu+A+705+1__LIG
     RDKit          3D

 18 19  0  0  0  0  0  0  0  0999 V2000
  -11.6680   23.0170  -18.4260 N   0  0  0  0  0  0  0  0  0  0  0  0
  -10.1920   22.5480  -22.3160 C   0  0  0  0  0  0  0  0  0  0  0  0
  -11.3370   21.8870  -21.9240 C   0  0  0  0  0  0  0  0  0  0  0  0
  -11.8230   22.0480  -20.6300 C   0  0  0  0  0  0  0  0  0  0  0  0
  -11.1530   22.8930  -19.7360 C   0  0  0  0  0  0  0  0  0  0  0  0
  -12.4560   23.9950  -17.9290 C   0  0  0  0  0  0  0  0  0  0  0  0
  -13.1840   22.6900  -15.9250 C   0  0  0  0  0  0  0  0  0  0  0  0
  -12.5440   24.9450  -15.5680 C   0  0  0  0  0  0  0  0  0  0  0  0
   -9.2090   24.4140  -19.1650 C   0  0  0  0  0  0  0  0  0  0  0  0
   -9.9710   23.5340  -20.1180 C   0  0  0  0  0  0  0  0  0  0  0  0
   -9.5030   23.3360  -21.4150 C   0  0  0  0  0  0  0  0  0  0  0  0
  -12.9600   21.4320  -20.2260 O   0  0  0  0  0  0  0  0  0  0  0  0
  -12.9490   24.8800  -18.6190 O   0  0  0  0  0  0  0  0  0  0  0  0
  -12.7560   23.9020  -16.4540 C   0  0  0  0  0  0  0  0  0  0  0  0
  -13.4360   22.6090  -14.5720 C   0  0  0  0  0  0  0  0  0  0  0  0
  -13.2840   23.6330  -13.7340 N   0  0  0  0  0  0  0  0  0  0  0  0
  -12.8260   24.7800  -14.2300 C   0  0  0  0  0  0  0  0  0  0  0  0
  -12.0810   26.1310  -16.0100 F   0  0  0  0  0  0  0  0  0  0  0  0
  2  3  2  0
  2 11  1  0
  3  4  1  0
 11 10  2  0
  4 12  1  0
  4  5  2  0
 10  5  1  0
 10  9  1  0
  5  1  1  0
  1  6  1  0
 13  6  2  0
  6 14  1  0
 14  7  2  0
 14  8  1  0
  7 15  1  0
 18  8  1  0
  8 17  2  0
 15 16  2  0
 17 16  1  0
M  END
$$$$
