LIG
     RDKit          3D

 52 54  0  0  0  0  0  0  0  0999 V2000
  -15.5067    6.0315  -27.3953 N   0  0  0  0  0  0  0  0  0  0  0  0
  -16.2943    5.9908  -26.1598 C   0  0  0  0  0  0  0  0  0  0  0  0
  -16.2309    6.6561  -25.1900 O   0  0  0  0  0  0  0  0  0  0  0  0
  -11.5377    9.4140  -29.1561 F   0  0  0  0  0  0  0  0  0  0  0  0
  -25.4032    2.4878  -29.0441 C   0  0  0  0  0  0  0  0  0  0  0  0
  -24.6085    4.1038  -25.8563 O   0  0  0  0  0  0  0  0  0  0  0  0
  -25.4206    3.5070  -27.9547 C   0  0  0  0  0  0  0  0  0  0  0  0
  -24.3353    3.5582  -26.8966 C   0  0  0  0  0  0  0  0  0  0  0  0
  -25.7737    1.2840  -28.5419 F   0  0  0  0  0  0  0  0  0  0  0  0
  -26.3043    2.7940  -30.0065 F   0  0  0  0  0  0  0  0  0  0  0  0
  -24.2195    2.3132  -29.6630 F   0  0  0  0  0  0  0  0  0  0  0  0
  -19.2878    2.9672  -27.5278 N   0  0  0  0  0  0  0  0  0  0  0  0
  -18.6909    2.8034  -26.2101 C   0  0  0  0  0  0  0  0  0  0  0  0
  -18.1164    4.0969  -25.6010 C   0  0  0  0  0  0  0  0  0  0  0  0
  -17.1436    4.8475  -26.4642 N   0  0  0  0  0  0  0  0  0  0  0  0
  -18.4337    5.3155  -27.1331 C   0  0  0  0  0  0  0  0  0  0  0  0
  -19.0451    4.2898  -28.1057 C   0  0  0  0  0  0  0  0  0  0  0  0
  -13.9566    6.7200  -29.0803 C   0  0  0  0  0  0  0  0  0  0  0  0
  -12.9582    7.5787  -29.5377 C   0  0  0  0  0  0  0  0  0  0  0  0
  -12.5221    8.6162  -28.7290 C   0  0  0  0  0  0  0  0  0  0  0  0
  -13.0933    8.8335  -27.4839 C   0  0  0  0  0  0  0  0  0  0  0  0
  -14.1022    7.9860  -27.0273 C   0  0  0  0  0  0  0  0  0  0  0  0
  -14.5243    6.9183  -27.8178 C   0  0  0  0  0  0  0  0  0  0  0  0
  -20.6540    1.0632  -27.5733 N   0  0  0  0  0  0  0  0  0  0  0  0
  -22.0428    0.6517  -27.7713 C   0  0  0  0  0  0  0  0  0  0  0  0
  -23.0140    1.5400  -26.9649 C   0  0  0  0  0  0  0  0  0  0  0  0
  -23.1212    3.0249  -27.3545 N   0  0  0  0  0  0  0  0  0  0  0  0
  -21.7431    3.0568  -26.7542 C   0  0  0  0  0  0  0  0  0  0  0  0
  -20.6474    2.5123  -27.7117 C   0  0  1  0  0  0  0  0  0  0  0  0
  -15.7774    5.2576  -27.9867 H   0  0  0  0  0  0  0  0  0  0  0  0
  -25.4257    4.4993  -28.4181 H   0  0  0  0  0  0  0  0  0  0  0  0
  -26.3527    3.3768  -27.4036 H   0  0  0  0  0  0  0  0  0  0  0  0
  -19.3734    2.3500  -25.4821 H   0  0  0  0  0  0  0  0  0  0  0  0
  -17.8643    2.0903  -26.3250 H   0  0  0  0  0  0  0  0  0  0  0  0
  -18.8400    4.7036  -25.0299 H   0  0  0  0  0  0  0  0  0  0  0  0
  -17.4649    3.7537  -24.7811 H   0  0  0  0  0  0  0  0  0  0  0  0
  -19.1619    5.8320  -26.4846 H   0  0  0  0  0  0  0  0  0  0  0  0
  -18.1224    6.1479  -27.7854 H   0  0  0  0  0  0  0  0  0  0  0  0
  -18.3399    4.1482  -28.9340 H   0  0  0  0  0  0  0  0  0  0  0  0
  -19.9462    4.7315  -28.5482 H   0  0  0  0  0  0  0  0  0  0  0  0
  -14.2882    5.9080  -29.7218 H   0  0  0  0  0  0  0  0  0  0  0  0
  -12.5237    7.4518  -30.5204 H   0  0  0  0  0  0  0  0  0  0  0  0
  -12.7556    9.6630  -26.8764 H   0  0  0  0  0  0  0  0  0  0  0  0
  -14.5450    8.1694  -26.0533 H   0  0  0  0  0  0  0  0  0  0  0  0
  -20.0497    0.6788  -28.2940 H   0  0  0  0  0  0  0  0  0  0  0  0
  -22.3159    0.6917  -28.8309 H   0  0  0  0  0  0  0  0  0  0  0  0
  -22.1566   -0.3791  -27.4335 H   0  0  0  0  0  0  0  0  0  0  0  0
  -24.0058    1.1204  -27.1744 H   0  0  0  0  0  0  0  0  0  0  0  0
  -22.9585    1.3771  -25.8730 H   0  0  0  0  0  0  0  0  0  0  0  0
  -21.5674    4.1421  -26.6945 H   0  0  0  0  0  0  0  0  0  0  0  0
  -21.6599    2.7847  -25.6879 H   0  0  0  0  0  0  0  0  0  0  0  0
  -20.9409    2.7409  -28.7474 H   0  0  0  0  0  0  0  0  0  0  0  0
  2  1  1  0
  3  2  2  0
  7  5  1  0
  8  7  1  0
  8  6  2  0
  5  9  1  0
 10  5  1  0
 11  5  1  0
 12 17  1  0
 12 13  1  0
 13 14  1  0
 14 15  1  0
 15 16  1  0
 15  2  1  0
 16 17  1  0
 18 23  2  0
 18 19  1  0
 19 20  2  0
 20 21  1  0
 20  4  1  0
 21 22  2  0
 22 23  1  0
 23  1  1  0
 24 29  1  0
 24 25  1  0
 25 26  1  0
 26 27  1  0
 27  8  1  0
 27 28  1  0
 28 29  1  0
 29 12  1  0
  1 30  1  0
  7 31  1  0
  7 32  1  0
 13 33  1  0
 13 34  1  0
 14 35  1  0
 14 36  1  0
 16 37  1  0
 16 38  1  0
 17 39  1  0
 17 40  1  0
 18 41  1  0
 19 42  1  0
 21 43  1  0
 22 44  1  0
 24 45  1  0
 25 46  1  0
 25 47  1  0
 26 48  1  0
 26 49  1  0
 28 50  1  0
 28 51  1  0
 29 52  1  6
M  END
