LIG
     RDKit          3D

 44 47  0  0  0  0  0  0  0  0999 V2000
  -13.4428    4.6307  -25.3291 O   0  0  0  0  0  0  0  0  0  0  0  0
  -14.4080    4.6334  -26.0847 C   0  0  0  0  0  0  0  0  0  0  0  0
  -15.6343    5.1385  -25.8003 N   0  0  0  0  0  0  0  0  0  0  0  0
  -15.2966    7.2990  -26.8659 N   0  0  0  0  0  0  0  0  0  0  0  0
  -16.0004    6.3007  -26.2316 C   0  0  0  0  0  0  0  0  0  0  0  0
  -20.4893    3.8208  -26.5082 C   0  0  0  0  0  0  0  0  0  0  0  0
  -13.2996    9.3845  -27.2505 F   0  0  0  0  0  0  0  0  0  0  0  0
  -13.0444    6.5123  -29.5692 C   0  0  0  0  0  0  0  0  0  0  0  0
  -13.9288    6.0999  -28.5876 C   0  0  0  0  0  0  0  0  0  0  0  0
  -14.2457    7.2040  -27.7259 C   0  0  0  0  0  0  0  0  0  0  0  0
  -13.3700    8.2530  -27.9626 C   0  0  0  0  0  0  0  0  0  0  0  0
  -12.3513    8.0299  -29.2882 S   0  0  0  0  0  0  0  0  0  0  0  0
  -15.8982    4.5718  -29.1059 C   0  0  0  0  0  0  0  0  0  0  0  0
  -14.4714    4.7080  -28.6182 C   0  0  2  0  0  0  0  0  0  0  0  0
  -14.3614    3.8522  -27.3665 C   0  0  2  0  0  0  0  0  0  0  0  0
  -15.5139    2.8391  -27.4384 C   0  0  0  0  0  0  0  0  0  0  0  0
  -16.2754    3.1529  -28.7145 C   0  0  0  0  0  0  0  0  0  0  0  0
  -19.2794    4.6095  -26.2993 N   0  0  0  0  0  0  0  0  0  0  0  0
  -19.3464    5.4398  -25.0928 C   0  0  0  0  0  0  0  0  0  0  0  0
  -18.0206    6.1859  -24.7954 C   0  0  0  0  0  0  0  0  0  0  0  0
  -17.3186    6.7040  -26.0023 N   0  0  0  0  0  0  0  0  0  0  0  0
  -18.2461    6.8062  -27.1652 C   0  0  0  0  0  0  0  0  0  0  0  0
  -18.9928    5.4700  -27.4679 C   0  0  0  0  0  0  0  0  0  0  0  0
  -15.6266    8.2198  -26.5952 H   0  0  0  0  0  0  0  0  0  0  0  0
  -20.6388    3.1278  -25.6730 H   0  0  0  0  0  0  0  0  0  0  0  0
  -21.3862    4.4402  -26.5983 H   0  0  0  0  0  0  0  0  0  0  0  0
  -20.3975    3.2100  -27.4133 H   0  0  0  0  0  0  0  0  0  0  0  0
  -12.7621    5.9436  -30.4379 H   0  0  0  0  0  0  0  0  0  0  0  0
  -16.5291    5.3075  -28.6240 H   0  0  0  0  0  0  0  0  0  0  0  0
  -16.0038    4.7387  -30.1818 H   0  0  0  0  0  0  0  0  0  0  0  0
  -13.8429    4.1741  -29.3322 H   0  0  0  0  0  0  0  0  0  0  0  0
  -13.4028    3.3210  -27.3665 H   0  0  0  0  0  0  0  0  0  0  0  0
  -15.1319    1.8138  -27.4763 H   0  0  0  0  0  0  0  0  0  0  0  0
  -16.1855    2.8758  -26.5740 H   0  0  0  0  0  0  0  0  0  0  0  0
  -17.3515    3.0112  -28.5952 H   0  0  0  0  0  0  0  0  0  0  0  0
  -15.9401    2.4475  -29.4745 H   0  0  0  0  0  0  0  0  0  0  0  0
  -20.1521    6.1780  -25.1825 H   0  0  0  0  0  0  0  0  0  0  0  0
  -19.5876    4.8217  -24.2190 H   0  0  0  0  0  0  0  0  0  0  0  0
  -18.2424    7.0429  -24.1482 H   0  0  0  0  0  0  0  0  0  0  0  0
  -17.3714    5.5270  -24.2072 H   0  0  0  0  0  0  0  0  0  0  0  0
  -18.9828    7.5822  -26.9236 H   0  0  0  0  0  0  0  0  0  0  0  0
  -17.7227    7.1580  -28.0613 H   0  0  0  0  0  0  0  0  0  0  0  0
  -18.4173    4.8677  -28.1651 H   0  0  0  0  0  0  0  0  0  0  0  0
  -19.8984    5.7145  -28.0303 H   0  0  0  0  0  0  0  0  0  0  0  0
  2  1  2  0
  3  2  1  0
  5  4  1  0
  5  3  2  0
  8  9  2  0
  8 12  1  0
  9 10  1  0
  9 14  1  0
 10 11  2  0
 11 12  1  0
 13 14  1  0
 13 17  1  0
 14 15  1  0
 15 16  1  0
 15  2  1  0
 16 17  1  0
 18 23  1  0
 18  6  1  0
 18 19  1  0
 19 20  1  0
 20 21  1  0
 21 22  1  0
 21  5  1  0
 22 23  1  0
  4 10  1  0
  7 11  1  0
  4 24  1  0
  6 25  1  0
  6 26  1  0
  6 27  1  0
  8 28  1  0
 13 29  1  0
 13 30  1  0
 14 31  1  6
 15 32  1  6
 16 33  1  0
 16 34  1  0
 17 35  1  0
 17 36  1  0
 19 37  1  0
 19 38  1  0
 20 39  1  0
 20 40  1  0
 22 41  1  0
 22 42  1  0
 23 43  1  0
 23 44  1  0
M  END
