5rhv_A_705_1_5rhv+A+705+1__LIG
     RDKit          3D

 17 18  0  0  0  0  0  0  0  0999 V2000
  -13.6520  -20.8050  -22.4460 N   0  0  0  0  0  0  0  0  0  0  0  0
  -13.6600  -19.8570  -23.5150 C   0  0  0  0  0  0  0  0  0  0  0  0
  -12.4460  -19.2510  -23.7890 C   0  0  0  0  0  0  0  0  0  0  0  0
  -14.9160  -19.5380  -24.1500 C   0  0  0  0  0  0  0  0  0  0  0  0
  -14.9530  -19.2270  -25.5310 C   0  0  0  0  0  0  0  0  0  0  0  0
  -16.1620  -18.8300  -26.1170 C   0  0  0  0  0  0  0  0  0  0  0  0
  -17.2960  -19.0750  -23.9780 C   0  0  0  0  0  0  0  0  0  0  0  0
  -12.0490  -21.7300  -20.9010 N   0  0  0  0  0  0  0  0  0  0  0  0
  -10.9500  -21.1300  -17.6320 C   0  0  0  0  0  0  0  0  0  0  0  0
  -10.0570  -22.0810  -18.1450 O   0  0  0  0  0  0  0  0  0  0  0  0
  -10.5730  -22.8100  -19.2300 C   0  0  0  0  0  0  0  0  0  0  0  0
  -16.1020  -19.4720  -23.3640 C   0  0  0  0  0  0  0  0  0  0  0  0
  -10.7440  -21.7850  -20.3400 C   0  0  0  0  0  0  0  0  0  0  0  0
  -12.4240  -20.8740  -21.9360 C   0  0  0  0  0  0  0  0  0  0  0  0
  -17.3300  -18.7500  -25.3510 C   0  0  0  0  0  0  0  0  0  0  0  0
   -9.8050  -21.0470  -20.6370 O   0  0  0  0  0  0  0  0  0  0  0  0
  -11.1990  -19.7910  -22.7270 S   0  0  0  0  0  0  0  0  0  0  0  0
  9 10  1  0
 10 11  1  0
 11 13  1  0
 13 16  2  0
  8 13  1  0
 14  8  1  0
 14  1  2  0
  1  2  1  0
  2  3  2  0
  3 17  1  0
 17 14  1  0
  4  2  1  0
  4  5  2  0
  5  6  1  0
  6 15  2  0
 15  7  1  0
  7 12  2  0
 12  4  1  0
M  END
$$$$
