LIG
     RDKit          3D

 65 68  0  0  0  0  0  0  0  0999 V2000
  -25.0120    4.7050  -26.5050 C   0  0  0  0  0  0  0  0  0  0  0  0
  -16.5370    0.3230  -26.0270 C   0  0  0  0  0  0  0  0  0  0  0  0
  -22.5170    2.3380  -28.1250 C   0  0  0  0  0  0  0  0  0  0  0  0
  -23.0940    3.3250  -27.0760 C   0  0  0  0  0  0  0  0  0  0  0  0
  -17.0710    1.1470  -27.0760 O   0  0  0  0  0  0  0  0  0  0  0  0
  -26.2990    3.7380  -30.4700 O   0  0  0  0  0  0  0  0  0  0  0  0
  -25.7330    1.9620  -26.0910 O   0  0  0  0  0  0  0  0  0  0  0  0
  -25.5940    2.5920  -27.2900 C   0  0  0  0  0  0  0  0  0  0  0  0
  -24.5520    3.6160  -27.4960 C   0  0  1  0  0  0  0  0  0  0  0  0
  -24.8620    4.3840  -28.5880 N   0  0  0  0  0  0  0  0  0  0  0  0
  -26.0400    3.6170  -29.1510 C   0  0  0  0  0  0  0  0  0  0  0  0
  -26.1140    2.1800  -28.6310 N   0  0  0  0  0  0  0  0  0  0  0  0
  -20.8040    0.8030  -27.1560 C   0  0  0  0  0  0  0  0  0  0  0  0
  -19.4860    0.4470  -26.8700 C   0  0  0  0  0  0  0  0  0  0  0  0
  -18.4700    1.3210  -27.2970 C   0  0  0  0  0  0  0  0  0  0  0  0
  -18.8040    2.5210  -27.9370 C   0  0  0  0  0  0  0  0  0  0  0  0
  -20.1340    2.8170  -28.2370 C   0  0  0  0  0  0  0  0  0  0  0  0
  -21.0660    1.9620  -27.8550 C   0  0  0  0  0  0  0  0  0  0  0  0
  -13.3680    9.7320  -29.8130 C   0  0  0  0  0  0  0  0  0  0  0  0
  -12.6160    8.8200  -27.6280 C   0  0  0  0  0  0  0  0  0  0  0  0
  -13.2570    8.4550  -28.9700 C   0  0  0  0  0  0  0  0  0  0  0  0
  -12.2990    7.5040  -29.6950 C   0  0  0  0  0  0  0  0  0  0  0  0
  -15.6190    8.6560  -28.3170 N   0  0  0  0  0  0  0  0  0  0  0  0
  -16.8470    8.1770  -28.1480 C   0  0  0  0  0  0  0  0  0  0  0  0
  -17.1230    6.7840  -28.4360 C   0  0  0  0  0  0  0  0  0  0  0  0
  -16.0530    5.9990  -28.8490 C   0  0  0  0  0  0  0  0  0  0  0  0
  -14.8200    6.5310  -28.9760 N   0  0  0  0  0  0  0  0  0  0  0  0
  -14.6500    7.8380  -28.7420 C   0  0  0  0  0  0  0  0  0  0  0  0
  -18.5700    4.7680  -28.6430 N   0  0  0  0  0  0  0  0  0  0  0  0
  -18.4760    6.1560  -28.2100 C   0  0  0  0  0  0  0  0  0  0  0  0
  -16.2070    4.5290  -29.1230 C   0  0  0  0  0  0  0  0  0  0  0  0
  -17.3690    3.9830  -28.3300 C   0  0  2  0  0  0  0  0  0  0  0  0
  -18.0865    3.2520  -28.1335 N   0  0  0  0  0  0  0  0  0  0  0  0
  -24.8621    4.3501  -25.4747 H   0  0  0  0  0  0  0  0  0  0  0  0
  -24.4236    5.6202  -26.6668 H   0  0  0  0  0  0  0  0  0  0  0  0
  -26.0783    4.9212  -26.6668 H   0  0  0  0  0  0  0  0  0  0  0  0
  -16.8125    0.7481  -25.0506 H   0  0  0  0  0  0  0  0  0  0  0  0
  -16.9486   -0.6934  -26.1137 H   0  0  0  0  0  0  0  0  0  0  0  0
  -15.4411    0.2835  -26.1137 H   0  0  0  0  0  0  0  0  0  0  0  0
  -23.1243    1.4209  -28.1144 H   0  0  0  0  0  0  0  0  0  0  0  0
  -22.5495    2.8414  -29.1025 H   0  0  0  0  0  0  0  0  0  0  0  0
  -23.0714    2.8701  -26.0747 H   0  0  0  0  0  0  0  0  0  0  0  0
  -22.5014    4.2508  -27.0355 H   0  0  0  0  0  0  0  0  0  0  0  0
  -24.4159    5.2465  -28.9316 H   0  0  0  0  0  0  0  0  0  0  0  0
  -26.4067    1.2822  -29.0423 H   0  0  0  0  0  0  0  0  0  0  0  0
  -21.6328    0.1602  -26.8244 H   0  0  0  0  0  0  0  0  0  0  0  0
  -19.2500   -0.4823  -26.3308 H   0  0  0  0  0  0  0  0  0  0  0  0
  -20.3996    3.7377  -28.7772 H   0  0  0  0  0  0  0  0  0  0  0  0
  -13.4439   10.6049  -29.1480 H   0  0  0  0  0  0  0  0  0  0  0  0
  -12.4751    9.8311  -30.4477 H   0  0  0  0  0  0  0  0  0  0  0  0
  -14.2646    9.6756  -30.4477 H   0  0  0  0  0  0  0  0  0  0  0  0
  -13.2523    8.4577  -26.8071 H   0  0  0  0  0  0  0  0  0  0  0  0
  -11.6232    8.3518  -27.5564 H   0  0  0  0  0  0  0  0  0  0  0  0
  -12.5121    9.9127  -27.5564 H   0  0  0  0  0  0  0  0  0  0  0  0
  -11.7215    6.9307  -28.9548 H   0  0  0  0  0  0  0  0  0  0  0  0
  -12.8766    6.8119  -30.3253 H   0  0  0  0  0  0  0  0  0  0  0  0
  -11.6111    8.0867  -30.3253 H   0  0  0  0  0  0  0  0  0  0  0  0
  -17.6517    8.8362  -27.7905 H   0  0  0  0  0  0  0  0  0  0  0  0
  -19.3949    4.3771  -29.1201 H   0  0  0  0  0  0  0  0  0  0  0  0
  -19.3187    6.6991  -27.7574 H   0  0  0  0  0  0  0  0  0  0  0  0
  -18.7973    6.4891  -29.2079 H   0  0  0  0  0  0  0  0  0  0  0  0
  -15.5693    3.9405  -29.7991 H   0  0  0  0  0  0  0  0  0  0  0  0
  -15.5296    4.3021  -28.2866 H   0  0  0  0  0  0  0  0  0  0  0  0
  -16.5074    3.7541  -27.6856 H   0  0  0  0  0  0  0  0  0  0  0  0
    0.0000    0.0000    0.0000 H   0  0  0  0  0  0  0  0  0  0  0  0
  4  3  1  0
  5  2  1  0
  8  9  1  0
  8 12  1  0
  8  7  2  0
  9  4  1  1
  9  1  1  0
  9 10  1  0
 10 11  1  0
 11 12  1  0
 11  6  2  0
 13 18  2  0
 13 14  1  0
 14 15  2  0
 15 16  1  0
 15  5  1  0
 16 17  2  0
 17 18  1  0
 18  3  1  0
 21 20  1  0
 21 19  1  0
 22 21  1  0
 23 28  2  0
 23 24  1  0
 24 25  2  0
 25 26  1  0
 25 30  1  0
 26 27  2  0
 26 31  1  0
 27 28  1  0
 28 21  1  0
 29 32  1  0
 29 30  1  0
 31 32  1  0
 33 16  1  0
 33 32  1  0
  1 34  1  0
  1 35  1  0
  1 36  1  0
  2 37  1  0
  2 38  1  0
  2 39  1  0
  3 40  1  0
  3 41  1  0
  4 42  1  0
  4 43  1  0
 10 44  1  0
 12 45  1  0
 13 46  1  0
 14 47  1  0
 17 48  1  0
 19 49  1  0
 19 50  1  0
 19 51  1  0
 20 52  1  0
 20 53  1  0
 20 54  1  0
 22 55  1  0
 22 56  1  0
 22 57  1  0
 24 58  1  0
 29 59  1  0
 30 60  1  0
 30 61  1  0
 31 62  1  0
 31 63  1  0
 32 64  1  1
 33 65  1  0
M  END
