LIG
     RDKit          3D

 55 57  0  0  0  0  0  0  0  0999 V2000
  -12.7619    9.3200  -29.5546 C   0  0  0  0  0  0  0  0  0  0  0  0
  -15.4268    5.1371  -24.9762 N   0  0  0  0  0  0  0  0  0  0  0  0
  -14.6784    5.8159  -26.0122 C   0  0  0  0  0  0  0  0  0  0  0  0
  -16.2477    0.7485  -25.2237 C   0  0  0  0  0  0  0  0  0  0  0  0
  -15.4050    1.8734  -24.9785 O   0  0  0  0  0  0  0  0  0  0  0  0
  -16.0211    2.9054  -24.3394 C   0  0  0  0  0  0  0  0  0  0  0  0
  -17.2033    2.9235  -24.0150 O   0  0  0  0  0  0  0  0  0  0  0  0
  -15.0609    4.0573  -24.1131 C   0  0  0  0  0  0  0  0  0  0  0  0
  -13.5592    5.6976  -26.3455 O   0  0  0  0  0  0  0  0  0  0  0  0
  -16.9870    8.5875  -27.7584 N   0  0  0  0  0  0  0  0  0  0  0  0
  -18.1108    7.7698  -27.3320 C   0  0  0  0  0  0  0  0  0  0  0  0
  -17.7900    6.4020  -27.7820 C   0  0  0  0  0  0  0  0  0  0  0  0
  -16.5060    6.0055  -27.6297 C   0  0  0  0  0  0  0  0  0  0  0  0
  -15.7275    6.6971  -26.5197 N   0  0  0  0  0  0  0  0  0  0  0  0
  -15.6643    7.8943  -27.6319 C   0  0  1  0  0  0  0  0  0  0  0  0
  -18.5066    4.2534  -28.8349 N   0  0  0  0  0  0  0  0  0  0  0  0
  -18.9077    5.5704  -28.3360 C   0  0  0  0  0  0  0  0  0  0  0  0
  -16.1863    4.5780  -28.0632 C   0  0  0  0  0  0  0  0  0  0  0  0
  -17.4274    3.6836  -28.0426 C   0  0  0  0  0  0  0  0  0  0  0  0
  -14.8202    7.7461  -28.9968 C   0  0  1  0  0  0  0  0  0  0  0  0
  -14.2892    9.1193  -29.5949 C   0  0  1  0  0  0  0  0  0  0  0  0
  -14.9409   10.3607  -28.9791 C   0  0  0  0  0  0  0  0  0  0  0  0
  -14.8754   10.3744  -27.4554 C   0  0  0  0  0  0  0  0  0  0  0  0
  -14.8671    8.9793  -26.8252 C   0  0  0  0  0  0  0  0  0  0  0  0
  -13.6703    6.7268  -29.0067 C   0  0  0  0  0  0  0  0  0  0  0  0
  -12.2334    8.5706  -30.1507 H   0  0  0  0  0  0  0  0  0  0  0  0
  -12.5012   10.2869  -29.9961 H   0  0  0  0  0  0  0  0  0  0  0  0
  -12.3670    9.2996  -28.5346 H   0  0  0  0  0  0  0  0  0  0  0  0
  -16.3522    5.5499  -24.9105 H   0  0  0  0  0  0  0  0  0  0  0  0
  -17.1110    1.0367  -25.8313 H   0  0  0  0  0  0  0  0  0  0  0  0
  -15.6679    0.0078  -25.7798 H   0  0  0  0  0  0  0  0  0  0  0  0
  -16.5682    0.3008  -24.2780 H   0  0  0  0  0  0  0  0  0  0  0  0
  -14.0309    3.7612  -24.3250 H   0  0  0  0  0  0  0  0  0  0  0  0
  -15.1320    4.3878  -23.0736 H   0  0  0  0  0  0  0  0  0  0  0  0
  -17.1524    8.7910  -28.7447 H   0  0  0  0  0  0  0  0  0  0  0  0
  -18.2506    7.8116  -26.2460 H   0  0  0  0  0  0  0  0  0  0  0  0
  -19.0274    8.1538  -27.7906 H   0  0  0  0  0  0  0  0  0  0  0  0
  -18.2373    4.3813  -29.8159 H   0  0  0  0  0  0  0  0  0  0  0  0
  -19.6489    5.4123  -27.5458 H   0  0  0  0  0  0  0  0  0  0  0  0
  -19.4048    6.1089  -29.1480 H   0  0  0  0  0  0  0  0  0  0  0  0
  -15.8019    4.6112  -29.0905 H   0  0  0  0  0  0  0  0  0  0  0  0
  -15.4180    4.0868  -27.4637 H   0  0  0  0  0  0  0  0  0  0  0  0
  -17.7655    3.5144  -27.0125 H   0  0  0  0  0  0  0  0  0  0  0  0
  -17.1680    2.6992  -28.4477 H   0  0  0  0  0  0  0  0  0  0  0  0
  -15.5387    7.3544  -29.7235 H   0  0  0  0  0  0  0  0  0  0  0  0
  -14.5521    9.1173  -30.6616 H   0  0  0  0  0  0  0  0  0  0  0  0
  -14.4877   11.2806  -29.3695 H   0  0  0  0  0  0  0  0  0  0  0  0
  -15.9830   10.4150  -29.3071 H   0  0  0  0  0  0  0  0  0  0  0  0
  -13.9889   10.9069  -27.1064 H   0  0  0  0  0  0  0  0  0  0  0  0
  -15.7252   10.9549  -27.0739 H   0  0  0  0  0  0  0  0  0  0  0  0
  -15.2588    9.0692  -25.8014 H   0  0  0  0  0  0  0  0  0  0  0  0
  -13.8278    8.6467  -26.7008 H   0  0  0  0  0  0  0  0  0  0  0  0
  -12.8706    7.0076  -28.3175 H   0  0  0  0  0  0  0  0  0  0  0  0
  -13.9879    5.7176  -28.7611 H   0  0  0  0  0  0  0  0  0  0  0  0
  -13.2416    6.6437  -30.0115 H   0  0  0  0  0  0  0  0  0  0  0  0
  3  2  1  0
  5  4  1  0
  6  5  1  0
  7  6  2  0
  8  2  1  0
  8  6  1  0
  9  3  2  0
 15 10  1  6
 10 11  1  0
 11 12  1  0
 12 13  2  0
 12 17  1  0
 13 14  1  0
 13 18  1  0
 14 15  1  0
 16 19  1  0
 16 17  1  0
 18 19  1  0
 20 21  1  0
 21 22  1  0
 22 23  1  0
 23 24  1  0
 15 24  1  0
 15 20  1  0
 14  3  1  0
 21  1  1  0
 20 25  1  0
  1 26  1  0
  1 27  1  0
  1 28  1  0
  2 29  1  0
  4 30  1  0
  4 31  1  0
  4 32  1  0
  8 33  1  0
  8 34  1  0
 10 35  1  0
 11 36  1  0
 11 37  1  0
 16 38  1  0
 17 39  1  0
 17 40  1  0
 18 41  1  0
 18 42  1  0
 19 43  1  0
 19 44  1  0
 20 45  1  6
 21 46  1  6
 22 47  1  0
 22 48  1  0
 23 49  1  0
 23 50  1  0
 24 51  1  0
 24 52  1  0
 25 53  1  0
 25 54  1  0
 25 55  1  0
M  END
