LIG
     RDKit          3D

 59 61  0  0  0  0  0  0  0  0999 V2000
  -15.9842    1.2101  -25.5489 C   0  0  0  0  0  0  0  0  0  0  0  0
  -13.6090    5.3534  -28.5371 C   0  0  0  0  0  0  0  0  0  0  0  0
  -13.5744    6.5776  -29.4546 C   0  0  0  0  0  0  0  0  0  0  0  0
  -14.8699    5.2839  -27.8791 N   0  0  0  0  0  0  0  0  0  0  0  0
  -12.6615    4.6255  -28.4909 O   0  0  0  0  0  0  0  0  0  0  0  0
  -13.9795    9.7028  -29.5491 C   0  0  0  0  0  0  0  0  0  0  0  0
  -14.3781    9.3205  -28.1240 C   0  0  0  0  0  0  0  0  0  0  0  0
  -13.2984    8.3638  -27.6295 C   0  0  0  0  0  0  0  0  0  0  0  0
  -12.7281    7.7255  -28.8955 C   0  0  0  0  0  0  0  0  0  0  0  0
  -12.7083    8.9160  -29.8566 C   0  0  0  0  0  0  0  0  0  0  0  0
  -16.0237    2.6053  -26.0307 C   0  0  0  0  0  0  0  0  0  0  0  0
  -16.9958    3.5680  -25.8657 C   0  0  0  0  0  0  0  0  0  0  0  0
  -16.5875    4.6851  -26.5333 O   0  0  0  0  0  0  0  0  0  0  0  0
  -15.3983    4.3394  -27.0857 C   0  0  0  0  0  0  0  0  0  0  0  0
  -14.9895    3.1277  -26.7849 N   0  0  0  0  0  0  0  0  0  0  0  0
  -25.4005    3.0428  -30.0380 C   0  0  0  0  0  0  0  0  0  0  0  0
  -25.0804    1.1939  -27.9345 O   0  0  0  0  0  0  0  0  0  0  0  0
  -25.1061    3.4363  -28.6227 C   0  0  0  0  0  0  0  0  0  0  0  0
  -24.5044    2.2447  -27.9180 C   0  0  0  0  0  0  0  0  0  0  0  0
  -26.2446    1.9935  -30.1031 F   0  0  0  0  0  0  0  0  0  0  0  0
  -25.9795    4.0469  -30.7282 F   0  0  0  0  0  0  0  0  0  0  0  0
  -24.2791    2.6839  -30.7091 F   0  0  0  0  0  0  0  0  0  0  0  0
  -20.2492    2.9703  -26.6102 N   0  0  0  0  0  0  0  0  0  0  0  0
  -20.9019    3.3156  -27.8836 C   0  0  0  0  0  0  0  0  0  0  0  0
  -22.1024    2.3911  -28.1602 C   0  0  0  0  0  0  0  0  0  0  0  0
  -23.3121    2.6311  -27.2535 N   0  0  0  0  0  0  0  0  0  0  0  0
  -22.4497    1.8866  -26.2703 C   0  0  0  0  0  0  0  0  0  0  0  0
  -21.3099    2.7011  -25.6364 C   0  0  0  0  0  0  0  0  0  0  0  0
  -18.3082    3.6730  -25.1908 C   0  0  0  0  0  0  0  0  0  0  0  0
  -19.4070    4.1032  -26.1762 C   0  0  0  0  0  0  0  0  0  0  0  0
  -15.7760    0.5274  -26.3788 H   0  0  0  0  0  0  0  0  0  0  0  0
  -15.1988    1.0885  -24.7995 H   0  0  0  0  0  0  0  0  0  0  0  0
  -16.9348    0.9113  -25.0974 H   0  0  0  0  0  0  0  0  0  0  0  0
  -13.1404    6.2343  -30.3995 H   0  0  0  0  0  0  0  0  0  0  0  0
  -14.5879    6.9080  -29.7082 H   0  0  0  0  0  0  0  0  0  0  0  0
  -15.3979    6.1172  -28.0908 H   0  0  0  0  0  0  0  0  0  0  0  0
  -14.7799    9.4318  -30.2468 H   0  0  0  0  0  0  0  0  0  0  0  0
  -13.8126   10.7799  -29.6505 H   0  0  0  0  0  0  0  0  0  0  0  0
  -14.4627   10.1978  -27.4749 H   0  0  0  0  0  0  0  0  0  0  0  0
  -15.3551    8.8234  -28.1322 H   0  0  0  0  0  0  0  0  0  0  0  0
  -12.5101    8.9400  -27.1296 H   0  0  0  0  0  0  0  0  0  0  0  0
  -13.6827    7.6453  -26.9010 H   0  0  0  0  0  0  0  0  0  0  0  0
  -11.7087    7.3658  -28.7201 H   0  0  0  0  0  0  0  0  0  0  0  0
  -12.6519    8.6215  -30.9086 H   0  0  0  0  0  0  0  0  0  0  0  0
  -11.8350    9.5421  -29.6392 H   0  0  0  0  0  0  0  0  0  0  0  0
  -24.4532    4.3069  -28.5858 H   0  0  0  0  0  0  0  0  0  0  0  0
  -26.0242    3.6964  -28.0926 H   0  0  0  0  0  0  0  0  0  0  0  0
  -20.1763    3.2254  -28.6996 H   0  0  0  0  0  0  0  0  0  0  0  0
  -21.2573    4.3513  -27.8577 H   0  0  0  0  0  0  0  0  0  0  0  0
  -22.4472    2.6825  -29.1609 H   0  0  0  0  0  0  0  0  0  0  0  0
  -21.8428    1.3330  -28.3397 H   0  0  0  0  0  0  0  0  0  0  0  0
  -23.1606    1.7158  -25.4458 H   0  0  0  0  0  0  0  0  0  0  0  0
  -22.1987    0.8450  -26.5350 H   0  0  0  0  0  0  0  0  0  0  0  0
  -21.7417    3.6340  -25.2575 H   0  0  0  0  0  0  0  0  0  0  0  0
  -20.9004    2.1501  -24.7828 H   0  0  0  0  0  0  0  0  0  0  0  0
  -18.5585    2.7357  -24.6822 H   0  0  0  0  0  0  0  0  0  0  0  0
  -18.2249    4.4330  -24.4036 H   0  0  0  0  0  0  0  0  0  0  0  0
  -18.9582    4.5803  -27.0574 H   0  0  0  0  0  0  0  0  0  0  0  0
  -20.0239    4.8834  -25.7100 H   0  0  0  0  0  0  0  0  0  0  0  0
  3  2  1  0
  4  2  1  0
  5  2  2  0
  6  7  1  0
  6 10  1  0
  7  8  1  0
  8  9  1  0
  9  3  1  0
  9 10  1  0
 11  1  1  0
 11 12  2  0
 11 15  1  0
 12 13  1  0
 13 14  1  0
 14  4  1  0
 14 15  2  0
 18 16  1  0
 19 18  1  0
 19 17  2  0
 16 20  1  0
 21 16  1  0
 22 16  1  0
 23 28  1  0
 23 24  1  0
 24 25  1  0
 25 26  1  0
 26 19  1  0
 26 27  1  0
 27 28  1  0
 29 12  1  0
 30 29  1  0
 30 23  1  0
  1 31  1  0
  1 32  1  0
  1 33  1  0
  3 34  1  0
  3 35  1  0
  4 36  1  0
  6 37  1  0
  6 38  1  0
  7 39  1  0
  7 40  1  0
  8 41  1  0
  8 42  1  0
  9 43  1  0
 10 44  1  0
 10 45  1  0
 18 46  1  0
 18 47  1  0
 24 48  1  0
 24 49  1  0
 25 50  1  0
 25 51  1  0
 27 52  1  0
 27 53  1  0
 28 54  1  0
 28 55  1  0
 29 56  1  0
 29 57  1  0
 30 58  1  0
 30 59  1  0
M  END
