5rhq_A_705_1_5rhu+A+705+1__LIG
     RDKit          3D

 17 19  0  0  0  0  0  0  0  0999 V2000
  -12.9900   20.3150  -21.8480 C   0  0  0  0  0  0  0  0  0  0  0  0
  -13.4850   18.8590  -24.1640 C   0  0  0  0  0  0  0  0  0  0  0  0
  -13.0470   18.9100  -21.7590 C   0  0  0  0  0  0  0  0  0  0  0  0
   -9.7760   23.7500  -19.3320 C   0  0  0  0  0  0  0  0  0  0  0  0
   -9.6090   23.2610  -20.6570 C   0  0  0  0  0  0  0  0  0  0  0  0
  -10.5750   22.4040  -21.2830 C   0  0  0  0  0  0  0  0  0  0  0  0
  -11.6790   22.0490  -20.5180 C   0  0  0  0  0  0  0  0  0  0  0  0
  -11.8820   22.5820  -19.1970 C   0  0  0  0  0  0  0  0  0  0  0  0
  -10.9110   23.4440  -18.5970 C   0  0  0  0  0  0  0  0  0  0  0  0
  -13.0730   22.0470  -18.6260 N   0  0  0  0  0  0  0  0  0  0  0  0
  -13.5480   21.2020  -19.5470 C   0  0  0  0  0  0  0  0  0  0  0  0
  -12.7440   21.1520  -20.7100 N   0  0  0  0  0  0  0  0  0  0  0  0
  -13.1780   20.9680  -23.0520 C   0  0  0  0  0  0  0  0  0  0  0  0
  -13.4310   20.2490  -24.2090 C   0  0  0  0  0  0  0  0  0  0  0  0
  -13.2930   18.1860  -22.9310 C   0  0  0  0  0  0  0  0  0  0  0  0
  -13.7570   18.1100  -25.4570 C   0  0  0  0  0  0  0  0  0  0  0  0
  -12.5690   18.0620  -26.2100 O   0  0  0  0  0  0  0  0  0  0  0  0
 11 10  2  0
 11 12  1  0
  3 15  1  0
  3  1  2  0
 10  8  1  0
 15  2  2  0
 17 16  1  0
 12  1  1  0
 12  7  1  0
  1 13  1  0
  8  7  2  0
  8  9  1  0
  2 16  1  0
  2 14  1  0
  7  6  1  0
  9  4  2  0
 13 14  2  0
  6  5  2  0
  4  5  1  0
M  END
$$$$
