LIG
     RDKit          3D

 59 61  0  0  0  0  0  0  0  0999 V2000
  -25.6462    2.8022  -29.9427 C   0  0  0  0  0  0  0  0  0  0  0  0
  -23.3181    1.4410  -29.2839 O   0  0  0  0  0  0  0  0  0  0  0  0
  -24.9439    3.0910  -28.6650 C   0  0  0  0  0  0  0  0  0  0  0  0
  -23.8385    2.0723  -28.4404 C   0  0  0  0  0  0  0  0  0  0  0  0
  -26.3358    1.6473  -29.8091 F   0  0  0  0  0  0  0  0  0  0  0  0
  -26.5433    3.7645  -30.2422 F   0  0  0  0  0  0  0  0  0  0  0  0
  -24.8211    2.6793  -30.9991 F   0  0  0  0  0  0  0  0  0  0  0  0
  -20.3596    2.3712  -26.5748 N   0  0  0  0  0  0  0  0  0  0  0  0
  -21.1761    3.2825  -27.3660 C   0  0  0  0  0  0  0  0  0  0  0  0
  -22.5441    3.2592  -26.6638 C   0  0  0  0  0  0  0  0  0  0  0  0
  -23.5371    2.1634  -26.9524 N   0  0  0  0  0  0  0  0  0  0  0  0
  -22.5441    1.3915  -26.0931 C   0  0  0  0  0  0  0  0  0  0  0  0
  -21.0946    1.1142  -26.6004 C   0  0  0  0  0  0  0  0  0  0  0  0
  -13.6197    9.9419  -29.7432 C   0  0  0  0  0  0  0  0  0  0  0  0
  -12.7046    9.0166  -27.5780 C   0  0  0  0  0  0  0  0  0  0  0  0
  -13.3480    8.6703  -28.9222 C   0  0  0  0  0  0  0  0  0  0  0  0
  -12.3635    7.7981  -29.7209 C   0  0  0  0  0  0  0  0  0  0  0  0
  -15.7714    8.6239  -28.4280 N   0  0  0  0  0  0  0  0  0  0  0  0
  -16.9058    7.9108  -28.2570 C   0  0  0  0  0  0  0  0  0  0  0  0
  -16.9544    6.5336  -28.2751 C   0  0  0  0  0  0  0  0  0  0  0  0
  -15.7355    5.9150  -28.4591 C   0  0  0  0  0  0  0  0  0  0  0  0
  -14.5784    6.5810  -28.6179 N   0  0  0  0  0  0  0  0  0  0  0  0
  -14.6438    7.9219  -28.6517 C   0  0  0  0  0  0  0  0  0  0  0  0
  -18.1196    4.2989  -28.2204 N   0  0  0  0  0  0  0  0  0  0  0  0
  -18.2462    5.7705  -28.2216 C   0  0  0  0  0  0  0  0  0  0  0  0
  -15.6436    4.4261  -28.4888 C   0  0  0  0  0  0  0  0  0  0  0  0
  -16.9569    3.8421  -28.9820 C   0  0  0  0  0  0  0  0  0  0  0  0
  -18.9779    2.2884  -27.0425 C   0  0  0  0  0  0  0  0  0  0  0  0
  -18.2338    3.6542  -26.9101 C   0  0  0  0  0  0  0  0  0  0  0  0
  -24.5182    4.0944  -28.7043 H   0  0  0  0  0  0  0  0  0  0  0  0
  -25.6598    3.0575  -27.8362 H   0  0  0  0  0  0  0  0  0  0  0  0
  -20.7936    4.3058  -27.3136 H   0  0  0  0  0  0  0  0  0  0  0  0
  -21.2371    2.9947  -28.4220 H   0  0  0  0  0  0  0  0  0  0  0  0
  -22.5192    3.5746  -25.6062 H   0  0  0  0  0  0  0  0  0  0  0  0
  -23.0432    4.1073  -27.1265 H   0  0  0  0  0  0  0  0  0  0  0  0
  -23.0083    0.3929  -26.0859 H   0  0  0  0  0  0  0  0  0  0  0  0
  -22.5904    1.6800  -25.0285 H   0  0  0  0  0  0  0  0  0  0  0  0
  -20.6217    0.3903  -25.9268 H   0  0  0  0  0  0  0  0  0  0  0  0
  -21.1222    0.6704  -27.6040 H   0  0  0  0  0  0  0  0  0  0  0  0
  -14.2348   10.6610  -29.1897 H   0  0  0  0  0  0  0  0  0  0  0  0
  -12.6871   10.4467  -30.0122 H   0  0  0  0  0  0  0  0  0  0  0  0
  -14.1472    9.7077  -30.6760 H   0  0  0  0  0  0  0  0  0  0  0  0
  -12.5496    8.1227  -26.9631 H   0  0  0  0  0  0  0  0  0  0  0  0
  -11.7268    9.4823  -27.7314 H   0  0  0  0  0  0  0  0  0  0  0  0
  -13.3289    9.7054  -26.9976 H   0  0  0  0  0  0  0  0  0  0  0  0
  -12.0841    6.8901  -29.1753 H   0  0  0  0  0  0  0  0  0  0  0  0
  -12.8053    7.4954  -30.6746 H   0  0  0  0  0  0  0  0  0  0  0  0
  -11.4374    8.3407  -29.9354 H   0  0  0  0  0  0  0  0  0  0  0  0
  -17.8091    8.5046  -28.1357 H   0  0  0  0  0  0  0  0  0  0  0  0
  -18.8465    6.1164  -27.3721 H   0  0  0  0  0  0  0  0  0  0  0  0
  -18.8145    6.0345  -29.1231 H   0  0  0  0  0  0  0  0  0  0  0  0
  -14.8304    4.1174  -29.1505 H   0  0  0  0  0  0  0  0  0  0  0  0
  -15.3917    4.0645  -27.4860 H   0  0  0  0  0  0  0  0  0  0  0  0
  -17.0943    4.1207  -30.0335 H   0  0  0  0  0  0  0  0  0  0  0  0
  -16.8828    2.7489  -28.9615 H   0  0  0  0  0  0  0  0  0  0  0  0
  -18.9282    1.8943  -28.0656 H   0  0  0  0  0  0  0  0  0  0  0  0
  -18.4447    1.5683  -26.4087 H   0  0  0  0  0  0  0  0  0  0  0  0
  -18.7662    4.2890  -26.1901 H   0  0  0  0  0  0  0  0  0  0  0  0
  -17.2509    3.4851  -26.4555 H   0  0  0  0  0  0  0  0  0  0  0  0
  3  1  1  0
  4  3  1  0
  4  2  2  0
  1  5  1  0
  6  1  1  0
  7  1  1  0
  8 13  1  0
  8  9  1  0
  9 10  1  0
 10 11  1  0
 11  4  1  0
 11 12  1  0
 12 13  1  0
 16 15  1  0
 16 14  1  0
 17 16  1  0
 18 23  2  0
 18 19  1  0
 19 20  2  0
 20 21  1  0
 20 25  1  0
 21 22  2  0
 21 26  1  0
 22 23  1  0
 23 16  1  0
 24 27  1  0
 24 25  1  0
 26 27  1  0
 28  8  1  0
 29 28  1  0
 29 24  1  0
  3 30  1  0
  3 31  1  0
  9 32  1  0
  9 33  1  0
 10 34  1  0
 10 35  1  0
 12 36  1  0
 12 37  1  0
 13 38  1  0
 13 39  1  0
 14 40  1  0
 14 41  1  0
 14 42  1  0
 15 43  1  0
 15 44  1  0
 15 45  1  0
 17 46  1  0
 17 47  1  0
 17 48  1  0
 19 49  1  0
 25 50  1  0
 25 51  1  0
 26 52  1  0
 26 53  1  0
 27 54  1  0
 27 55  1  0
 28 56  1  0
 28 57  1  0
 29 58  1  0
 29 59  1  0
M  END
