LIG
     RDKit          3D

 34 36  0  0  0  0  0  0  0  0999 V2000
  -12.6399    3.9158  -26.5986 O   0  0  0  0  0  0  0  0  0  0  0  0
  -13.8286    4.2159  -26.5978 C   0  0  0  0  0  0  0  0  0  0  0  0
  -14.4446    4.5587  -25.4553 O   0  0  0  0  0  0  0  0  0  0  0  0
  -16.3278    0.7934  -25.5456 C   0  0  0  0  0  0  0  0  0  0  0  0
  -12.9666    7.1253  -29.2132 C   0  0  0  0  0  0  0  0  0  0  0  0
  -13.9832    6.6281  -28.4149 C   0  0  0  0  0  0  0  0  0  0  0  0
  -14.2008    7.4938  -27.2974 C   0  0  0  0  0  0  0  0  0  0  0  0
  -13.3589    8.5858  -27.3054 C   0  0  0  0  0  0  0  0  0  0  0  0
  -12.2802    8.5681  -28.6268 S   0  0  0  0  0  0  0  0  0  0  0  0
  -16.2377    5.5926  -29.0310 C   0  0  0  0  0  0  0  0  0  0  0  0
  -14.7432    5.3881  -28.7629 C   0  0  2  0  0  0  0  0  0  0  0  0
  -14.6466    4.1440  -27.8626 C   0  0  2  0  0  0  0  0  0  0  0  0
  -16.0832    3.6216  -27.7197 C   0  0  2  0  0  0  0  0  0  0  0  0
  -16.7926    4.1716  -28.9523 C   0  0  0  0  0  0  0  0  0  0  0  0
  -16.9004    1.9396  -26.3722 C   0  0  1  0  0  0  0  0  0  0  0  0
  -16.8334    3.1688  -25.5932 N   0  0  0  0  0  0  0  0  0  0  0  0
  -16.7538    4.2094  -26.6035 O   0  0  0  0  0  0  0  0  0  0  0  0
  -16.1471    2.1748  -27.5885 N   0  0  0  0  0  0  0  0  0  0  0  0
  -15.4254    4.4403  -25.4797 H   0  0  0  0  0  0  0  0  0  0  0  0
  -15.2989    0.9918  -25.2255 H   0  0  0  0  0  0  0  0  0  0  0  0
  -16.9286    0.6256  -24.6445 H   0  0  0  0  0  0  0  0  0  0  0  0
  -16.3271   -0.1374  -26.1230 H   0  0  0  0  0  0  0  0  0  0  0  0
  -12.5992    6.7089  -30.1381 H   0  0  0  0  0  0  0  0  0  0  0  0
  -14.9497    7.3397  -26.5301 H   0  0  0  0  0  0  0  0  0  0  0  0
  -13.3210    9.4032  -26.6010 H   0  0  0  0  0  0  0  0  0  0  0  0
  -16.7034    6.2366  -28.2758 H   0  0  0  0  0  0  0  0  0  0  0  0
  -16.4252    6.0397  -30.0105 H   0  0  0  0  0  0  0  0  0  0  0  0
  -14.3291    5.0727  -29.7282 H   0  0  0  0  0  0  0  0  0  0  0  0
  -14.1062    3.3993  -28.4690 H   0  0  0  0  0  0  0  0  0  0  0  0
  -17.8834    4.1797  -28.8597 H   0  0  0  0  0  0  0  0  0  0  0  0
  -16.5132    3.6205  -29.8526 H   0  0  0  0  0  0  0  0  0  0  0  0
  -17.9416    1.7186  -26.6358 H   0  0  0  0  0  0  0  0  0  0  0  0
  -17.7728    3.3281  -25.2144 H   0  0  0  0  0  0  0  0  0  0  0  0
  -15.2135    1.7935  -27.4563 H   0  0  0  0  0  0  0  0  0  0  0  0
  2  1  2  0
  3  2  1  0
  5  6  2  0
  5  9  1  0
  6  7  1  0
  6 11  1  0
  7  8  2  0
  8  9  1  0
 10 11  1  0
 10 14  1  0
 11 12  1  0
 12 13  1  0
 12  2  1  0
 13 14  1  0
 15  4  1  0
 15 16  1  0
 15 18  1  0
 16 17  1  0
 13 17  1  1
 13 18  1  0
  3 19  1  0
  4 20  1  0
  4 21  1  0
  4 22  1  0
  5 23  1  0
  7 24  1  0
  8 25  1  0
 10 26  1  0
 10 27  1  0
 11 28  1  6
 12 29  1  6
 14 30  1  0
 14 31  1  0
 15 32  1  6
 16 33  1  0
 18 34  1  0
M  END
