LIG
     RDKit          3D

 45 46  0  0  0  0  0  0  0  0999 V2000
  -15.0305    5.9828  -26.9802 C   0  0  2  0  0  0  0  0  0  0  0  0
  -16.3180    6.6813  -26.4192 C   0  0  0  0  0  0  0  0  0  0  0  0
  -20.8775    2.9919  -27.0494 C   0  0  0  0  0  0  0  0  0  0  0  0
  -16.2596    7.8024  -26.0640 O   0  0  0  0  0  0  0  0  0  0  0  0
  -11.3407    9.3840  -29.6032 F   0  0  0  0  0  0  0  0  0  0  0  0
  -15.1489    4.6888  -27.7605 C   0  0  0  0  0  0  0  0  0  0  0  0
  -14.1732    4.0950  -28.2302 O   0  0  0  0  0  0  0  0  0  0  0  0
  -16.2767    4.7377  -22.7325 C   0  0  0  0  0  0  0  0  0  0  0  0
  -15.3923    5.3821  -23.6477 O   0  0  0  0  0  0  0  0  0  0  0  0
  -15.1065    4.6747  -24.7758 C   0  0  0  0  0  0  0  0  0  0  0  0
  -15.5038    3.5444  -25.0225 O   0  0  0  0  0  0  0  0  0  0  0  0
  -14.2545    5.5062  -25.7080 C   0  0  0  0  0  0  0  0  0  0  0  0
  -20.2117    4.2723  -26.9309 N   0  0  0  0  0  0  0  0  0  0  0  0
  -19.6169    4.5011  -25.6295 C   0  0  0  0  0  0  0  0  0  0  0  0
  -18.8135    5.8056  -25.7069 C   0  0  0  0  0  0  0  0  0  0  0  0
  -17.4549    5.6920  -26.3449 N   0  0  0  0  0  0  0  0  0  0  0  0
  -18.3422    5.7561  -27.6205 C   0  0  0  0  0  0  0  0  0  0  0  0
  -19.1872    4.4902  -27.9497 C   0  0  0  0  0  0  0  0  0  0  0  0
  -13.8907    6.8561  -29.1508 C   0  0  0  0  0  0  0  0  0  0  0  0
  -12.9567    7.6806  -29.7777 C   0  0  0  0  0  0  0  0  0  0  0  0
  -12.3060    8.6541  -29.0464 C   0  0  0  0  0  0  0  0  0  0  0  0
  -12.6398    8.8859  -27.7318 C   0  0  0  0  0  0  0  0  0  0  0  0
  -13.5790    8.0810  -27.1100 C   0  0  0  0  0  0  0  0  0  0  0  0
  -14.1650    6.9951  -27.7771 C   0  0  0  0  0  0  0  0  0  0  0  0
  -20.1874    2.1517  -26.9133 H   0  0  0  0  0  0  0  0  0  0  0  0
  -21.6768    2.9027  -26.3055 H   0  0  0  0  0  0  0  0  0  0  0  0
  -21.3482    2.8912  -28.0336 H   0  0  0  0  0  0  0  0  0  0  0  0
  -16.1407    4.2291  -27.8523 H   0  0  0  0  0  0  0  0  0  0  0  0
  -16.7125    5.5061  -22.0879 H   0  0  0  0  0  0  0  0  0  0  0  0
  -17.0947    4.2222  -23.2457 H   0  0  0  0  0  0  0  0  0  0  0  0
  -15.7152    4.0405  -22.1069 H   0  0  0  0  0  0  0  0  0  0  0  0
  -13.8934    6.3536  -25.1246 H   0  0  0  0  0  0  0  0  0  0  0  0
  -13.3597    4.9199  -25.9531 H   0  0  0  0  0  0  0  0  0  0  0  0
  -20.3953    4.5913  -24.8671 H   0  0  0  0  0  0  0  0  0  0  0  0
  -18.9559    3.6752  -25.3349 H   0  0  0  0  0  0  0  0  0  0  0  0
  -19.3820    6.7287  -25.9076 H   0  0  0  0  0  0  0  0  0  0  0  0
  -18.5253    5.9983  -24.6605 H   0  0  0  0  0  0  0  0  0  0  0  0
  -18.8765    6.7134  -27.7532 H   0  0  0  0  0  0  0  0  0  0  0  0
  -17.6124    5.8228  -28.4419 H   0  0  0  0  0  0  0  0  0  0  0  0
  -18.5139    3.6259  -28.0144 H   0  0  0  0  0  0  0  0  0  0  0  0
  -19.6597    4.6225  -28.9281 H   0  0  0  0  0  0  0  0  0  0  0  0
  -14.3496    6.0781  -29.7572 H   0  0  0  0  0  0  0  0  0  0  0  0
  -12.7219    7.5568  -30.8267 H   0  0  0  0  0  0  0  0  0  0  0  0
  -12.1591    9.6876  -27.1972 H   0  0  0  0  0  0  0  0  0  0  0  0
  -13.8419    8.3076  -26.0835 H   0  0  0  0  0  0  0  0  0  0  0  0
  2  1  1  0
  4  2  2  0
  7  6  2  0
  6  1  1  0
  9  8  1  0
 10  9  1  0
 11 10  2  0
 12 10  1  0
  1 12  1  6
 13 18  1  0
 13  3  1  0
 13 14  1  0
 14 15  1  0
 15 16  1  0
 16 17  1  0
 16  2  1  0
 17 18  1  0
 19 24  2  0
 19 20  1  0
 20 21  2  0
 21 22  1  0
 21  5  1  0
 22 23  2  0
 23 24  1  0
 24  1  1  0
  3 25  1  0
  3 26  1  0
  3 27  1  0
  6 28  1  0
  8 29  1  0
  8 30  1  0
  8 31  1  0
 12 32  1  0
 12 33  1  0
 14 34  1  0
 14 35  1  0
 15 36  1  0
 15 37  1  0
 17 38  1  0
 17 39  1  0
 18 40  1  0
 18 41  1  0
 19 42  1  0
 20 43  1  0
 22 44  1  0
 23 45  1  0
M  END
