5rhj_A_705_1_5rhu+A+705+1__LIG
     RDKit          3D

 14 15  0  0  0  0  0  0  0  0999 V2000
   -9.4250   23.9490  -19.4890 N   0  0  0  0  0  0  0  0  0  0  0  0
  -11.6220   21.7400  -21.2610 C   0  0  0  0  0  0  0  0  0  0  0  0
  -11.0610   21.6590  -22.4840 C   0  0  0  0  0  0  0  0  0  0  0  0
   -9.8600   22.3620  -22.8070 C   0  0  0  0  0  0  0  0  0  0  0  0
   -9.1980   23.1600  -21.8870 C   0  0  0  0  0  0  0  0  0  0  0  0
   -9.7780   23.2460  -20.6310 C   0  0  0  0  0  0  0  0  0  0  0  0
  -11.3660   22.8000  -19.0210 N   0  0  0  0  0  0  0  0  0  0  0  0
  -11.6240   26.1710  -15.5390 C   0  0  0  0  0  0  0  0  0  0  0  0
  -10.4610   26.8370  -17.7280 O   0  0  0  0  0  0  0  0  0  0  0  0
  -10.5040   24.2990  -17.1780 C   0  0  0  0  0  0  0  0  0  0  0  0
  -10.4250   23.6630  -18.5370 C   0  0  0  0  0  0  0  0  0  0  0  0
  -10.9850   22.5380  -20.3270 C   0  0  0  0  0  0  0  0  0  0  0  0
  -12.6390   25.6230  -17.7330 O   0  0  0  0  0  0  0  0  0  0  0  0
  -11.3590   25.8600  -17.1570 S   0  0  0  0  0  0  0  0  0  0  0  0
  8 14  1  0
  9 14  2  0
 14 13  2  0
 10 14  1  0
 11 10  1  0
 11  7  2  0
  7 12  1  0
 12  2  2  0
  2  3  1  0
  3  4  2  0
  4  5  1  0
  5  6  2  0
 12  6  1  0
  6  1  1  0
  1 11  1  0
M  END
$$$$
