LIG
     RDKit          3D

 55 57  0  0  0  0  0  0  0  0999 V2000
  -15.5177   10.9386  -25.2398 N   0  0  0  0  0  0  0  0  0  0  0  0
  -15.7465   12.7576  -23.5637 C   0  0  0  0  0  0  0  0  0  0  0  0
  -18.8513    8.7552  -26.3646 C   0  0  0  0  0  0  0  0  0  0  0  0
  -15.3234   11.2861  -23.7359 C   0  0  0  0  0  0  0  0  0  0  0  0
  -14.6278   13.6376  -23.9296 N   0  0  0  0  0  0  0  0  0  0  0  0
  -17.7425    9.6134  -26.0972 O   0  0  0  0  0  0  0  0  0  0  0  0
  -14.8771   10.6491  -22.8630 O   0  0  0  0  0  0  0  0  0  0  0  0
  -12.9265    3.6481  -26.1866 O   0  0  0  0  0  0  0  0  0  0  0  0
  -14.0312    4.0606  -26.5176 C   0  0  0  0  0  0  0  0  0  0  0  0
  -14.8660    4.6580  -25.6472 O   0  0  0  0  0  0  0  0  0  0  0  0
  -15.2542    8.9970  -28.8949 C   0  0  0  0  0  0  0  0  0  0  0  0
  -16.4945    9.5214  -28.1801 C   0  0  0  0  0  0  0  0  0  0  0  0
  -16.5384    9.1545  -26.7045 C   0  0  1  0  0  0  0  0  0  0  0  0
  -15.2890    9.6988  -25.9565 C   0  0  1  0  0  0  0  0  0  0  0  0
  -14.0692    9.8461  -26.8884 C   0  0  0  0  0  0  0  0  0  0  0  0
  -14.0590    8.7607  -27.9560 C   0  0  1  0  0  0  0  0  0  0  0  0
  -12.9664    7.0833  -29.5970 C   0  0  0  0  0  0  0  0  0  0  0  0
  -13.5504    6.3189  -28.4011 C   0  0  1  0  0  0  0  0  0  0  0  0
  -13.9606    7.3475  -27.3417 C   0  0  0  0  0  0  0  0  0  0  0  0
  -12.5652    8.7260  -28.9715 S   0  0  0  0  0  0  0  0  0  0  0  0
  -16.0873    5.5936  -28.7827 C   0  0  0  0  0  0  0  0  0  0  0  0
  -14.5987    5.2471  -28.7665 C   0  0  2  0  0  0  0  0  0  0  0  0
  -14.5432    3.9396  -27.9391 C   0  0  2  0  0  0  0  0  0  0  0  0
  -15.9372    3.3032  -28.0270 C   0  0  0  0  0  0  0  0  0  0  0  0
  -16.7624    4.2360  -28.9011 C   0  0  0  0  0  0  0  0  0  0  0  0
  -16.0125   11.6949  -25.7016 H   0  0  0  0  0  0  0  0  0  0  0  0
  -16.6239   12.9813  -24.1780 H   0  0  0  0  0  0  0  0  0  0  0  0
  -16.0301   12.9222  -22.5192 H   0  0  0  0  0  0  0  0  0  0  0  0
  -18.6530    7.7410  -26.0044 H   0  0  0  0  0  0  0  0  0  0  0  0
  -19.7166    9.1475  -25.8230 H   0  0  0  0  0  0  0  0  0  0  0  0
  -19.0964    8.7411  -27.4292 H   0  0  0  0  0  0  0  0  0  0  0  0
  -13.8730   13.4858  -23.2489 H   0  0  0  0  0  0  0  0  0  0  0  0
  -14.2463   13.3290  -24.8244 H   0  0  0  0  0  0  0  0  0  0  0  0
  -15.7145    4.9573  -26.0227 H   0  0  0  0  0  0  0  0  0  0  0  0
  -15.0085    9.7347  -29.6723 H   0  0  0  0  0  0  0  0  0  0  0  0
  -15.5210    8.0915  -29.4335 H   0  0  0  0  0  0  0  0  0  0  0  0
  -16.5372   10.6146  -28.2707 H   0  0  0  0  0  0  0  0  0  0  0  0
  -17.3814    9.1535  -28.6963 H   0  0  0  0  0  0  0  0  0  0  0  0
  -16.5343    8.0654  -26.6163 H   0  0  0  0  0  0  0  0  0  0  0  0
  -15.0539    8.9630  -25.1787 H   0  0  0  0  0  0  0  0  0  0  0  0
  -14.1174   10.8312  -27.3702 H   0  0  0  0  0  0  0  0  0  0  0  0
  -13.1466    9.8417  -26.3065 H   0  0  0  0  0  0  0  0  0  0  0  0
  -12.0525    6.6280  -29.9498 H   0  0  0  0  0  0  0  0  0  0  0  0
  -13.6694    7.1666  -30.4258 H   0  0  0  0  0  0  0  0  0  0  0  0
  -12.7077    5.7500  -28.0016 H   0  0  0  0  0  0  0  0  0  0  0  0
  -14.8547    7.0363  -26.8096 H   0  0  0  0  0  0  0  0  0  0  0  0
  -13.1835    7.3538  -26.5625 H   0  0  0  0  0  0  0  0  0  0  0  0
  -16.4207    6.0833  -27.8659 H   0  0  0  0  0  0  0  0  0  0  0  0
  -16.3643    6.2166  -29.6351 H   0  0  0  0  0  0  0  0  0  0  0  0
  -14.3540    4.9566  -29.7884 H   0  0  0  0  0  0  0  0  0  0  0  0
  -13.8378    3.2616  -28.4327 H   0  0  0  0  0  0  0  0  0  0  0  0
  -15.8878    2.3058  -28.4789 H   0  0  0  0  0  0  0  0  0  0  0  0
  -16.4087    3.1783  -27.0467 H   0  0  0  0  0  0  0  0  0  0  0  0
  -17.8142    4.2657  -28.6017 H   0  0  0  0  0  0  0  0  0  0  0  0
  -16.7208    3.9037  -29.9429 H   0  0  0  0  0  0  0  0  0  0  0  0
  4  1  1  0
  4  2  1  0
  5  2  1  0
  6  3  1  0
  7  4  2  0
  9  8  2  0
 10  9  1  0
 11 16  1  0
 11 12  1  0
 12 13  1  0
 13 14  1  0
 13  6  1  0
 14 15  1  0
 14  1  1  0
 15 16  1  0
 17 18  1  0
 17 20  1  0
 18 19  1  0
 18 22  1  0
 21 22  1  0
 21 25  1  0
 22 23  1  0
 23 24  1  0
 23  9  1  0
 24 25  1  0
 16 19  1  0
 16 20  1  6
  1 26  1  0
  2 27  1  0
  2 28  1  0
  3 29  1  0
  3 30  1  0
  3 31  1  0
  5 32  1  0
  5 33  1  0
 10 34  1  0
 11 35  1  0
 11 36  1  0
 12 37  1  0
 12 38  1  0
 13 39  1  6
 14 40  1  1
 15 41  1  0
 15 42  1  0
 17 43  1  0
 17 44  1  0
 18 45  1  1
 19 46  1  0
 19 47  1  0
 21 48  1  0
 21 49  1  0
 22 50  1  6
 23 51  1  6
 24 52  1  0
 24 53  1  0
 25 54  1  0
 25 55  1  0
M  END
