LIG
     RDKit          3D

 42 42  0  0  0  0  0  0  0  0999 V2000
  -14.6678   10.2881  -31.3166 C   0  0  0  0  0  0  0  0  0  0  0  0
  -12.7851    8.7529  -27.2774 C   0  0  0  0  0  0  0  0  0  0  0  0
  -16.3529    8.8456  -27.6651 O   0  0  0  0  0  0  0  0  0  0  0  0
  -15.2484    8.5203  -26.9361 C   0  0  0  0  0  0  0  0  0  0  0  0
  -17.5079    9.1775  -26.8926 C   0  0  0  0  0  0  0  0  0  0  0  0
  -15.1961    8.4932  -25.7109 O   0  0  0  0  0  0  0  0  0  0  0  0
  -12.4855   10.1911  -29.9371 O   0  0  0  0  0  0  0  0  0  0  0  0
  -14.6188   10.9681  -28.8105 O   0  0  0  0  0  0  0  0  0  0  0  0
  -13.9130   10.1135  -29.7347 S   0  0  0  0  0  0  0  0  0  0  0  0
  -16.3072    6.2330  -28.6294 N   0  0  0  0  0  0  0  0  0  0  0  0
  -15.0856    5.6138  -27.9232 C   0  0  0  0  0  0  0  0  0  0  0  0
  -20.1879    3.8696  -27.1620 C   0  0  0  0  0  0  0  0  0  0  0  0
  -19.3772    4.3499  -28.2324 O   0  0  0  0  0  0  0  0  0  0  0  0
  -18.3799    5.1953  -27.8294 C   0  0  0  0  0  0  0  0  0  0  0  0
  -18.1688    5.5186  -26.6661 O   0  0  0  0  0  0  0  0  0  0  0  0
  -17.5593    5.6342  -29.0402 C   0  0  0  0  0  0  0  0  0  0  0  0
  -14.9246    4.5414  -27.4912 O   0  0  0  0  0  0  0  0  0  0  0  0
  -13.6636    7.4406  -30.1287 C   0  0  0  0  0  0  0  0  0  0  0  0
  -13.0845    6.4149  -29.1794 C   0  0  0  0  0  0  0  0  0  0  0  0
  -13.9003    6.5988  -27.9094 C   0  0  1  0  0  0  0  0  0  0  0  0
  -14.0784    8.1272  -27.8419 C   0  0  2  0  0  0  0  0  0  0  0  0
  -14.2499    8.5150  -29.2999 N   0  0  0  0  0  0  0  0  0  0  0  0
  -15.7302   10.1026  -31.2018 H   0  0  0  0  0  0  0  0  0  0  0  0
  -14.4940   11.3088  -31.6584 H   0  0  0  0  0  0  0  0  0  0  0  0
  -14.2034    9.5927  -32.0046 H   0  0  0  0  0  0  0  0  0  0  0  0
  -12.4755    8.2322  -26.3716 H   0  0  0  0  0  0  0  0  0  0  0  0
  -11.9375    8.7012  -27.9672 H   0  0  0  0  0  0  0  0  0  0  0  0
  -12.9423    9.7983  -26.9996 H   0  0  0  0  0  0  0  0  0  0  0  0
  -17.7776    8.3525  -26.2266 H   0  0  0  0  0  0  0  0  0  0  0  0
  -17.3286   10.0935  -26.3218 H   0  0  0  0  0  0  0  0  0  0  0  0
  -18.3381    9.3527  -27.5821 H   0  0  0  0  0  0  0  0  0  0  0  0
  -16.0748    7.1697  -28.9507 H   0  0  0  0  0  0  0  0  0  0  0  0
  -19.6257    3.1433  -26.5671 H   0  0  0  0  0  0  0  0  0  0  0  0
  -20.5475    4.6857  -26.5288 H   0  0  0  0  0  0  0  0  0  0  0  0
  -21.0556    3.3646  -27.5954 H   0  0  0  0  0  0  0  0  0  0  0  0
  -18.1218    6.3637  -29.6241 H   0  0  0  0  0  0  0  0  0  0  0  0
  -17.3068    4.7531  -29.6360 H   0  0  0  0  0  0  0  0  0  0  0  0
  -12.9179    7.7937  -30.8431 H   0  0  0  0  0  0  0  0  0  0  0  0
  -14.4966    6.9840  -30.6524 H   0  0  0  0  0  0  0  0  0  0  0  0
  -13.1391    5.4046  -29.5948 H   0  0  0  0  0  0  0  0  0  0  0  0
  -12.0295    6.6415  -28.9934 H   0  0  0  0  0  0  0  0  0  0  0  0
  -13.3167    6.2716  -27.0385 H   0  0  0  0  0  0  0  0  0  0  0  0
  4  3  1  0
  5  3  1  0
  6  4  2  0
  9  7  2  0
  9  1  1  0
  9  8  2  0
 11 10  1  0
 13 12  1  0
 14 13  1  0
 15 14  2  0
 16 10  1  0
 16 14  1  0
 17 11  2  0
 18 19  1  0
 18 22  1  0
 19 20  1  0
 20 21  1  0
 21  2  1  1
 21 22  1  0
 21  4  1  0
 22  9  1  0
 11 20  1  0
  1 23  1  0
  1 24  1  0
  1 25  1  0
  2 26  1  0
  2 27  1  0
  2 28  1  0
  5 29  1  0
  5 30  1  0
  5 31  1  0
 10 32  1  0
 12 33  1  0
 12 34  1  0
 12 35  1  0
 16 36  1  0
 16 37  1  0
 18 38  1  0
 18 39  1  0
 19 40  1  0
 19 41  1  0
 20 42  1  1
M  END
