LIG
     RDKit          3D

 42 43  0  0  0  0  0  0  0  0999 V2000
  -14.6132    9.9645  -31.3776 C   0  0  0  0  0  0  0  0  0  0  0  0
  -12.5964    8.8105  -27.2968 C   0  0  0  0  0  0  0  0  0  0  0  0
  -16.2577    9.5169  -27.4004 O   0  0  0  0  0  0  0  0  0  0  0  0
  -15.0175    9.5110  -26.8256 C   0  0  0  0  0  0  0  0  0  0  0  0
  -17.1880   10.4160  -26.8000 C   0  0  0  0  0  0  0  0  0  0  0  0
  -14.7254   10.1213  -25.8041 O   0  0  0  0  0  0  0  0  0  0  0  0
  -12.3718    9.7888  -30.1074 O   0  0  0  0  0  0  0  0  0  0  0  0
  -14.3055   11.0675  -29.0976 O   0  0  0  0  0  0  0  0  0  0  0  0
  -13.7820    9.9457  -29.8413 S   0  0  0  0  0  0  0  0  0  0  0  0
  -12.8272    3.7672  -26.9102 O   0  0  0  0  0  0  0  0  0  0  0  0
  -13.9351    4.2682  -27.0395 C   0  0  0  0  0  0  0  0  0  0  0  0
  -14.7883    4.3575  -25.9970 O   0  0  0  0  0  0  0  0  0  0  0  0
  -14.0909    7.1695  -29.5192 C   0  0  0  0  0  0  0  0  0  0  0  0
  -14.7977    6.3361  -28.4022 C   0  0  1  0  0  0  0  0  0  0  0  0
  -14.3926    7.1086  -27.1400 C   0  0  0  0  0  0  0  0  0  0  0  0
  -14.0803    8.5508  -27.5755 C   0  0  2  0  0  0  0  0  0  0  0  0
  -14.3169    8.5562  -29.0565 N   0  0  0  0  0  0  0  0  0  0  0  0
  -16.3344    6.3504  -28.6060 C   0  0  0  0  0  0  0  0  0  0  0  0
  -14.4601    4.8156  -28.3609 C   0  0  2  0  0  0  0  0  0  0  0  0
  -15.7477    4.0534  -28.7302 C   0  0  0  0  0  0  0  0  0  0  0  0
  -16.6356    5.0840  -29.3891 C   0  0  0  0  0  0  0  0  0  0  0  0
  -15.6800   10.0261  -31.1841 H   0  0  0  0  0  0  0  0  0  0  0  0
  -14.2823   10.8346  -31.9455 H   0  0  0  0  0  0  0  0  0  0  0  0
  -14.3301    9.0569  -31.8866 H   0  0  0  0  0  0  0  0  0  0  0  0
  -12.3397    8.5340  -26.2806 H   0  0  0  0  0  0  0  0  0  0  0  0
  -11.9356    8.2338  -27.9529 H   0  0  0  0  0  0  0  0  0  0  0  0
  -12.3457    9.8582  -27.4126 H   0  0  0  0  0  0  0  0  0  0  0  0
  -17.3939   10.1174  -25.7676 H   0  0  0  0  0  0  0  0  0  0  0  0
  -16.8098   11.4419  -26.8388 H   0  0  0  0  0  0  0  0  0  0  0  0
  -18.1215   10.3684  -27.3672 H   0  0  0  0  0  0  0  0  0  0  0  0
  -15.6412    4.7937  -26.1907 H   0  0  0  0  0  0  0  0  0  0  0  0
  -13.0220    6.9413  -29.5762 H   0  0  0  0  0  0  0  0  0  0  0  0
  -14.5568    6.9996  -30.4821 H   0  0  0  0  0  0  0  0  0  0  0  0
  -15.1698    7.0703  -26.3675 H   0  0  0  0  0  0  0  0  0  0  0  0
  -13.4989    6.6677  -26.6855 H   0  0  0  0  0  0  0  0  0  0  0  0
  -16.6994    7.2378  -29.1320 H   0  0  0  0  0  0  0  0  0  0  0  0
  -16.8569    6.3057  -27.6423 H   0  0  0  0  0  0  0  0  0  0  0  0
  -13.6920    4.6052  -29.1142 H   0  0  0  0  0  0  0  0  0  0  0  0
  -15.5522    3.2077  -29.3911 H   0  0  0  0  0  0  0  0  0  0  0  0
  -16.2610    3.6354  -27.8570 H   0  0  0  0  0  0  0  0  0  0  0  0
  -17.6930    4.8109  -29.3377 H   0  0  0  0  0  0  0  0  0  0  0  0
  -16.3631    5.2078  -30.4417 H   0  0  0  0  0  0  0  0  0  0  0  0
  4  3  1  0
  5  3  1  0
  6  4  2  0
  9  7  2  0
  9  1  1  0
  9  8  2  0
 11 10  2  0
 12 11  1  0
 14 13  1  6
 13 17  1  0
 14 15  1  0
 15 16  1  0
 16  2  1  6
 16 17  1  0
 16  4  1  0
 17  9  1  0
 18 21  1  0
 19 20  1  0
 19 11  1  0
 20 21  1  0
 14 18  1  0
 14 19  1  0
  1 22  1  0
  1 23  1  0
  1 24  1  0
  2 25  1  0
  2 26  1  0
  2 27  1  0
  5 28  1  0
  5 29  1  0
  5 30  1  0
 12 31  1  0
 13 32  1  0
 13 33  1  0
 15 34  1  0
 15 35  1  0
 18 36  1  0
 18 37  1  0
 19 38  1  6
 20 39  1  0
 20 40  1  0
 21 41  1  0
 21 42  1  0
M  END
