LIG
     RDKit          3D

 47 47  0  0  0  0  0  0  0  0999 V2000
  -15.0311    4.7164  -27.9406 N   0  0  0  0  0  0  0  0  0  0  0  0
  -14.5141    6.0629  -27.3806 C   0  0  0  0  0  0  0  0  0  0  0  0
  -16.6551    0.2385  -28.0708 C   0  0  0  0  0  0  0  0  0  0  0  0
  -15.9067    1.2651  -27.4260 O   0  0  0  0  0  0  0  0  0  0  0  0
  -15.6879    2.3580  -28.2109 C   0  0  0  0  0  0  0  0  0  0  0  0
  -16.0779    2.4813  -29.3671 O   0  0  0  0  0  0  0  0  0  0  0  0
  -14.8483    3.3728  -27.4594 C   0  0  0  0  0  0  0  0  0  0  0  0
  -13.7977    6.2843  -26.4884 O   0  0  0  0  0  0  0  0  0  0  0  0
  -15.8271   10.7668  -27.1631 N   0  0  0  0  0  0  0  0  0  0  0  0
  -15.7768   12.2965  -25.1844 C   0  0  0  0  0  0  0  0  0  0  0  0
  -14.9010   11.3883  -26.0808 C   0  0  0  0  0  0  0  0  0  0  0  0
  -14.9456   13.2688  -24.4448 N   0  0  0  0  0  0  0  0  0  0  0  0
  -13.7694   11.2032  -25.8560 O   0  0  0  0  0  0  0  0  0  0  0  0
  -12.2287    8.7865  -28.4631 C   0  0  0  0  0  0  0  0  0  0  0  0
  -17.8719    8.0700  -27.1337 C   0  0  0  0  0  0  0  0  0  0  0  0
  -16.5919    8.1424  -26.5196 O   0  0  0  0  0  0  0  0  0  0  0  0
  -15.1118    7.1778  -28.2572 C   0  0  2  0  0  0  0  0  0  0  0  0
  -14.1525    7.4700  -29.4218 C   0  0  0  0  0  0  0  0  0  0  0  0
  -13.4409    8.8246  -29.3910 C   0  0  1  0  0  0  0  0  0  0  0  0
  -14.3970    9.9973  -29.0918 C   0  0  0  0  0  0  0  0  0  0  0  0
  -15.5693    9.7073  -28.1399 C   0  0  1  0  0  0  0  0  0  0  0  0
  -15.4336    8.3857  -27.3652 C   0  0  1  0  0  0  0  0  0  0  0  0
  -15.7092    4.8927  -28.6770 H   0  0  0  0  0  0  0  0  0  0  0  0
  -17.6672    0.5883  -28.2952 H   0  0  0  0  0  0  0  0  0  0  0  0
  -16.1448   -0.0855  -28.9820 H   0  0  0  0  0  0  0  0  0  0  0  0
  -16.7259   -0.6114  -27.3874 H   0  0  0  0  0  0  0  0  0  0  0  0
  -13.7896    3.1237  -27.5519 H   0  0  0  0  0  0  0  0  0  0  0  0
  -15.1209    3.3750  -26.3996 H   0  0  0  0  0  0  0  0  0  0  0  0
  -16.7762   11.0909  -27.0231 H   0  0  0  0  0  0  0  0  0  0  0  0
  -16.5247   12.8288  -25.7720 H   0  0  0  0  0  0  0  0  0  0  0  0
  -16.2994   11.6545  -24.4679 H   0  0  0  0  0  0  0  0  0  0  0  0
  -14.2406   12.7314  -23.9298 H   0  0  0  0  0  0  0  0  0  0  0  0
  -14.3947   13.7800  -25.1366 H   0  0  0  0  0  0  0  0  0  0  0  0
  -12.5113    8.7145  -27.4100 H   0  0  0  0  0  0  0  0  0  0  0  0
  -11.5819    7.9347  -28.6994 H   0  0  0  0  0  0  0  0  0  0  0  0
  -11.6260    9.6882  -28.5859 H   0  0  0  0  0  0  0  0  0  0  0  0
  -18.5927    7.7748  -26.3657 H   0  0  0  0  0  0  0  0  0  0  0  0
  -18.1808    9.0458  -27.5159 H   0  0  0  0  0  0  0  0  0  0  0  0
  -17.9060    7.3228  -27.9284 H   0  0  0  0  0  0  0  0  0  0  0  0
  -16.0443    6.8067  -28.6917 H   0  0  0  0  0  0  0  0  0  0  0  0
  -13.4198    6.6623  -29.5486 H   0  0  0  0  0  0  0  0  0  0  0  0
  -14.7473    7.4515  -30.3346 H   0  0  0  0  0  0  0  0  0  0  0  0
  -13.0305    8.9958  -30.3965 H   0  0  0  0  0  0  0  0  0  0  0  0
  -13.8326   10.8706  -28.7628 H   0  0  0  0  0  0  0  0  0  0  0  0
  -14.8396   10.3090  -30.0493 H   0  0  0  0  0  0  0  0  0  0  0  0
  -16.4759    9.6697  -28.7539 H   0  0  0  0  0  0  0  0  0  0  0  0
  -14.6211    8.5242  -26.6422 H   0  0  0  0  0  0  0  0  0  0  0  0
  2  1  1  0
  4  3  1  0
  5  4  1  0
  6  5  2  0
  7  1  1  0
  7  5  1  0
  8  2  2  0
 11  9  1  0
 11 10  1  0
 12 10  1  0
 13 11  2  0
 16 15  1  0
 17  2  1  0
 17 22  1  0
 17 18  1  0
 18 19  1  0
 19 20  1  0
 20 21  1  0
 21 22  1  0
  9 21  1  0
 14 19  1  0
 16 22  1  0
  1 23  1  0
  3 24  1  0
  3 25  1  0
  3 26  1  0
  7 27  1  0
  7 28  1  0
  9 29  1  0
 10 30  1  0
 10 31  1  0
 12 32  1  0
 12 33  1  0
 14 34  1  0
 14 35  1  0
 14 36  1  0
 15 37  1  0
 15 38  1  0
 15 39  1  0
 17 40  1  6
 18 41  1  0
 18 42  1  0
 19 43  1  6
 20 44  1  0
 20 45  1  0
 21 46  1  6
 22 47  1  1
M  END
