8v7r_A_704_1_5rhu+A+705+1__LIG
     RDKit          3D

 18 19  0  0  0  0  0  0  0  0999 V2000
  -15.5940   18.4980  -21.0170 C   0  0  0  0  0  0  0  0  0  0  0  0
  -14.0080   17.9720  -22.6620 C   0  0  0  0  0  0  0  0  0  0  0  0
  -10.9020   22.0190  -21.5500 C   0  0  0  0  0  0  0  0  0  0  0  0
   -9.8370   24.1510  -17.5000 C   0  0  0  0  0  0  0  0  0  0  0  0
  -10.4300   23.0690  -19.5170 C   0  0  0  0  0  0  0  0  0  0  0  0
  -11.6560   22.6290  -18.9900 C   0  0  0  0  0  0  0  0  0  0  0  0
  -12.5080   21.8680  -19.7140 C   0  0  0  0  0  0  0  0  0  0  0  0
  -12.0920   21.5810  -21.0120 C   0  0  0  0  0  0  0  0  0  0  0  0
  -12.9610   20.7370  -21.8890 C   0  0  0  0  0  0  0  0  0  0  0  0
  -13.8430   19.8230  -21.0590 C   0  0  0  0  0  0  0  0  0  0  0  0
  -14.6470   19.0950  -22.1100 C   0  0  2  0  0  0  0  0  0  0  0  0
  -15.3200   19.0700  -24.2300 C   0  0  0  0  0  0  0  0  0  0  0  0
  -10.0380   22.7760  -20.7950 C   0  0  0  0  0  0  0  0  0  0  0  0
  -15.8040   19.4890  -22.8870 N   0  0  0  0  0  0  0  0  0  0  0  0
  -13.9550   18.4700  -24.0030 N   0  0  0  0  0  0  0  0  0  0  0  0
   -9.5340   23.8240  -18.8340 O   0  0  0  0  0  0  0  0  0  0  0  0
  -15.3060   20.1030  -25.0980 O   0  0  0  0  0  0  0  0  0  0  0  0
  -14.0570   16.6760  -22.1530 O   0  0  0  0  0  0  0  0  0  0  0  0
 16  4  1  0
  5 16  1  0
  6  5  1  0
  7  6  2  0
  8  7  1  0
 10  9  1  0
 11 10  1  0
 11  1  1  1
 14 11  1  0
 12 14  1  0
 17 12  2  0
 15 12  1  0
  2 15  1  0
 18  2  2  0
  9  8  1  0
  3  8  2  0
 13  3  1  0
  5 13  2  0
 11  2  1  0
M  END
$$$$
