5rhh_A_705_1_5rhh+A+705+1__LIG
     RDKit          3D

 12 12  0  0  0  0  0  0  0  0999 V2000
   12.8260   14.1590  -38.6890 N   0  0  0  0  0  0  0  0  0  0  0  0
   13.9350   11.3920  -36.8800 C   0  0  0  0  0  0  0  0  0  0  0  0
   15.4020   11.6070  -36.5780 C   0  0  0  0  0  0  0  0  0  0  0  0
   11.9550   10.6090  -36.5480 N   0  0  0  0  0  0  0  0  0  0  0  0
   10.8290    9.9330  -35.8830 C   0  0  0  0  0  0  0  0  0  0  0  0
   13.0050   12.5330  -40.1870 O   0  0  0  0  0  0  0  0  0  0  0  0
   11.8230   11.3650  -37.6240 C   0  0  0  0  0  0  0  0  0  0  0  0
   13.0100   11.9210  -37.8960 C   0  0  0  0  0  0  0  0  0  0  0  0
   13.0310   12.8660  -39.0010 C   0  0  0  0  0  0  0  0  0  0  0  0
   16.0990   10.3740  -36.7590 F   0  0  0  0  0  0  0  0  0  0  0  0
   15.9230   12.5020  -37.3710 F   0  0  0  0  0  0  0  0  0  0  0  0
   13.2300   10.5670  -36.0580 N   0  0  0  0  0  0  0  0  0  0  0  0
  5  4  1  0
  4  7  1  0
  7  8  2  0
  9  8  1  0
  6  9  2  0
  1  9  1  0
  8  2  1  0
 12  2  2  0
  4 12  1  0
  2  3  1  0
 10  3  1  0
  3 11  1  0
M  END
$$$$
