7ga3_A_705_1_7g9m+A+704+1__LIG
     RDKit          3D

  7  7  0  0  0  0  0  0  0  0999 V2000
  -25.5680    3.1080  -27.5840 C   0  0  0  0  0  0  0  0  0  0  0  0
  -24.6540    3.9360  -28.4970 C   0  0  0  0  0  0  0  0  0  0  0  0
  -25.7930    2.0160  -28.6350 C   0  0  0  0  0  0  0  0  0  0  0  0
  -25.0570    2.7270  -26.3280 O   0  0  0  0  0  0  0  0  0  0  0  0
  -25.3350    3.1510  -29.9680 S   0  0  0  0  0  0  0  0  0  0  0  0
  -24.3540    2.5730  -30.8400 O   0  0  0  0  0  0  0  0  0  0  0  0
  -26.4390    3.8620  -30.5480 O   0  0  0  0  0  0  0  0  0  0  0  0
  1  2  1  0
  1  3  1  0
  1  4  1  0
  2  5  1  0
  3  5  1  0
  5  6  2  0
  5  7  2  0
M  END
$$$$
