LIG
     RDKit          3D

 45 46  0  0  0  0  0  0  0  0999 V2000
  -16.2489    5.8810  -26.8561 N   0  0  0  0  0  0  0  0  0  0  0  0
  -16.8884    6.3412  -25.6282 C   0  0  0  0  0  0  0  0  0  0  0  0
  -20.8477    2.1897  -25.7999 C   0  0  0  0  0  0  0  0  0  0  0  0
  -16.7047    7.3091  -24.9879 O   0  0  0  0  0  0  0  0  0  0  0  0
  -12.5185    7.7408  -30.4633 F   0  0  0  0  0  0  0  0  0  0  0  0
  -16.9721    9.0308  -27.5630 O   0  0  0  0  0  0  0  0  0  0  0  0
  -15.7386    8.8810  -27.0279 C   0  0  0  0  0  0  0  0  0  0  0  0
  -17.7635   10.0202  -26.9082 C   0  0  0  0  0  0  0  0  0  0  0  0
  -15.2180    9.4804  -26.1039 O   0  0  0  0  0  0  0  0  0  0  0  0
  -14.4288   10.1072  -30.9532 C   0  0  0  0  0  0  0  0  0  0  0  0
  -12.4192   10.0995  -29.3122 O   0  0  0  0  0  0  0  0  0  0  0  0
  -14.6971   10.8557  -28.5163 O   0  0  0  0  0  0  0  0  0  0  0  0
  -13.8604    9.9644  -29.2879 S   0  0  0  0  0  0  0  0  0  0  0  0
  -19.7821    3.1730  -25.7062 N   0  0  0  0  0  0  0  0  0  0  0  0
  -19.5082    3.6035  -24.3406 C   0  0  0  0  0  0  0  0  0  0  0  0
  -18.7572    4.9553  -24.2917 C   0  0  0  0  0  0  0  0  0  0  0  0
  -17.8218    5.2458  -25.4293 N   0  0  0  0  0  0  0  0  0  0  0  0
  -19.1418    5.5427  -26.1528 C   0  0  0  0  0  0  0  0  0  0  0  0
  -20.0174    4.3323  -26.5588 C   0  0  0  0  0  0  0  0  0  0  0  0
  -14.6048    5.5788  -28.4886 C   0  0  0  0  0  0  0  0  0  0  0  0
  -13.6471    6.0079  -29.3930 C   0  0  0  0  0  0  0  0  0  0  0  0
  -13.4288    7.3593  -29.5589 C   0  0  0  0  0  0  0  0  0  0  0  0
  -14.1524    8.2940  -28.8280 C   0  0  0  0  0  0  0  0  0  0  0  0
  -15.0450    7.8735  -27.8311 C   0  0  0  0  0  0  0  0  0  0  0  0
  -15.2996    6.4947  -27.6803 C   0  0  0  0  0  0  0  0  0  0  0  0
  -16.5983    4.9593  -27.0866 H   0  0  0  0  0  0  0  0  0  0  0  0
  -20.6096    1.3070  -25.1963 H   0  0  0  0  0  0  0  0  0  0  0  0
  -21.8103    2.5878  -25.4597 H   0  0  0  0  0  0  0  0  0  0  0  0
  -20.9646    1.8454  -26.8334 H   0  0  0  0  0  0  0  0  0  0  0  0
  -17.8757    9.7882  -25.8446 H   0  0  0  0  0  0  0  0  0  0  0  0
  -17.3206   11.0119  -27.0426 H   0  0  0  0  0  0  0  0  0  0  0  0
  -18.7558   10.0189  -27.3680 H   0  0  0  0  0  0  0  0  0  0  0  0
  -15.5032    9.9310  -30.9676 H   0  0  0  0  0  0  0  0  0  0  0  0
  -14.2208   11.1238  -31.2948 H   0  0  0  0  0  0  0  0  0  0  0  0
  -13.9011    9.3992  -31.5878 H   0  0  0  0  0  0  0  0  0  0  0  0
  -20.4252    3.7073  -23.7500 H   0  0  0  0  0  0  0  0  0  0  0  0
  -18.8993    2.8336  -23.8512 H   0  0  0  0  0  0  0  0  0  0  0  0
  -19.3690    5.8055  -23.9439 H   0  0  0  0  0  0  0  0  0  0  0  0
  -18.0594    4.8614  -23.4443 H   0  0  0  0  0  0  0  0  0  0  0  0
  -19.7060    6.3827  -25.7136 H   0  0  0  0  0  0  0  0  0  0  0  0
  -18.8367    5.9886  -27.1135 H   0  0  0  0  0  0  0  0  0  0  0  0
  -19.7945    4.0558  -27.5966 H   0  0  0  0  0  0  0  0  0  0  0  0
  -21.0688    4.6389  -26.5268 H   0  0  0  0  0  0  0  0  0  0  0  0
  -14.7857    4.5095  -28.3935 H   0  0  0  0  0  0  0  0  0  0  0  0
  -13.0917    5.3004  -29.9925 H   0  0  0  0  0  0  0  0  0  0  0  0
  2  1  1  0
  4  2  2  0
  7  6  1  0
  8  6  1  0
  9  7  2  0
 13 11  2  0
 13 10  1  0
 13 12  2  0
 14 19  1  0
 14  3  1  0
 14 15  1  0
 15 16  1  0
 16 17  1  0
 17 18  1  0
 17  2  1  0
 18 19  1  0
 20 25  2  0
 20 21  1  0
 21 22  2  0
 22 23  1  0
 22  5  1  0
 23 24  2  0
 24 25  1  0
 25  1  1  0
  7 24  1  0
 13 23  1  0
  1 26  1  0
  3 27  1  0
  3 28  1  0
  3 29  1  0
  8 30  1  0
  8 31  1  0
  8 32  1  0
 10 33  1  0
 10 34  1  0
 10 35  1  0
 15 36  1  0
 15 37  1  0
 16 38  1  0
 16 39  1  0
 18 40  1  0
 18 41  1  0
 19 42  1  0
 19 43  1  0
 20 44  1  0
 21 45  1  0
M  END
