7ga1_A_703_1_7g9m+A+704+1__LIG
     RDKit          3D

 13 14  0  0  0  0  0  0  0  0999 V2000
  -13.7520    6.4460  -28.6100 C   0  0  0  0  0  0  0  0  0  0  0  0
  -12.6780    6.7220  -29.4130 C   0  0  0  0  0  0  0  0  0  0  0  0
  -12.9520    8.4080  -27.6780 C   0  0  0  0  0  0  0  0  0  0  0  0
  -13.9550    7.4910  -27.6530 C   0  0  0  0  0  0  0  0  0  0  0  0
  -16.0930    5.3820  -28.8660 C   0  0  0  0  0  0  0  0  0  0  0  0
  -15.7830    3.3410  -27.7030 C   0  0  0  0  0  0  0  0  0  0  0  0
  -12.7520    3.8660  -26.1230 O   0  0  0  0  0  0  0  0  0  0  0  0
  -13.7970    4.3790  -26.4440 C   0  0  0  0  0  0  0  0  0  0  0  0
  -14.3860    3.9960  -27.7980 C   0  0  2  0  0  0  0  0  0  0  0  0
  -14.5750    5.2010  -28.7790 C   0  0  2  0  0  0  0  0  0  0  0  0
  -11.8610    8.1250  -28.9260 S   0  0  0  0  0  0  0  0  0  0  0  0
  -16.5840    3.9390  -28.8560 C   0  0  0  0  0  0  0  0  0  0  0  0
  -14.4030    5.1730  -25.7400 O   0  0  0  0  0  0  0  0  0  0  0  0
  2 11  1  0
  2  1  2  0
 11  3  1  0
  5 12  1  0
  5 10  1  0
 12  6  1  0
 10  1  1  1
 10  9  1  0
  1  4  1  0
  9  6  1  0
  9  8  1  1
  3  4  2  0
  8  7  2  0
  8 13  1  0
M  END
$$$$
