LIG
     RDKit          3D

 49 51  0  0  0  0  0  0  0  0999 V2000
  -15.4030    5.9201  -27.5968 N   0  0  0  0  0  0  0  0  0  0  0  0
  -15.5839    5.1500  -26.2610 C   0  0  0  0  0  0  0  0  0  0  0  0
  -20.9084    3.5125  -27.6702 C   0  0  0  0  0  0  0  0  0  0  0  0
  -14.8901    5.0671  -25.3547 O   0  0  0  0  0  0  0  0  0  0  0  0
  -11.3268    9.2094  -29.2807 F   0  0  0  0  0  0  0  0  0  0  0  0
  -19.9939    3.7115  -26.5403 N   0  0  0  0  0  0  0  0  0  0  0  0
  -18.8549    2.7951  -26.5412 C   0  0  0  0  0  0  0  0  0  0  0  0
  -17.6393    3.3893  -25.7836 C   0  0  0  0  0  0  0  0  0  0  0  0
  -16.9043    4.4602  -26.5516 N   0  0  0  0  0  0  0  0  0  0  0  0
  -18.0730    5.2751  -26.0328 C   0  0  0  0  0  0  0  0  0  0  0  0
  -19.4406    5.0687  -26.6923 C   0  0  0  0  0  0  0  0  0  0  0  0
  -14.2114    7.0111  -29.3715 C   0  0  0  0  0  0  0  0  0  0  0  0
  -13.1691    7.8328  -29.8085 C   0  0  0  0  0  0  0  0  0  0  0  0
  -12.3518    8.4530  -28.8763 C   0  0  0  0  0  0  0  0  0  0  0  0
  -12.5684    8.2791  -27.5198 C   0  0  0  0  0  0  0  0  0  0  0  0
  -13.5792    7.4229  -27.0839 C   0  0  0  0  0  0  0  0  0  0  0  0
  -14.3970    6.7832  -28.0076 C   0  0  0  0  0  0  0  0  0  0  0  0
  -25.5731    2.9996  -25.9994 O   0  0  0  0  0  0  0  0  0  0  0  0
  -23.8768    1.7633  -30.1520 O   0  0  0  0  0  0  0  0  0  0  0  0
  -25.3058    3.8467  -30.2966 O   0  0  0  0  0  0  0  0  0  0  0  0
  -25.4200    3.2861  -27.4085 C   0  0  2  0  0  0  0  0  0  0  0  0
  -25.8157    2.1637  -28.3960 C   0  0  0  0  0  0  0  0  0  0  0  0
  -24.6371    2.8177  -29.5295 S   0  0  0  0  0  0  0  0  0  0  0  0
  -23.9737    3.2987  -27.9613 C   0  0  2  0  0  0  0  0  0  0  0  0
  -21.6399    2.2672  -27.5759 N   0  0  0  0  0  0  0  0  0  0  0  0
  -23.0390    2.3907  -27.1435 C   0  0  0  0  0  0  0  0  0  0  0  0
  -16.1761    5.7123  -28.2167 H   0  0  0  0  0  0  0  0  0  0  0  0
  -20.3604    3.5108  -28.6212 H   0  0  0  0  0  0  0  0  0  0  0  0
  -21.5859    4.3629  -27.7056 H   0  0  0  0  0  0  0  0  0  0  0  0
  -18.5346    2.5539  -27.5642 H   0  0  0  0  0  0  0  0  0  0  0  0
  -19.1418    1.8551  -26.0565 H   0  0  0  0  0  0  0  0  0  0  0  0
  -17.7708    3.5364  -24.6972 H   0  0  0  0  0  0  0  0  0  0  0  0
  -16.8929    2.5787  -25.7829 H   0  0  0  0  0  0  0  0  0  0  0  0
  -17.8036    6.3059  -26.3184 H   0  0  0  0  0  0  0  0  0  0  0  0
  -18.1074    5.3904  -24.9336 H   0  0  0  0  0  0  0  0  0  0  0  0
  -19.3482    5.3622  -27.7470 H   0  0  0  0  0  0  0  0  0  0  0  0
  -20.1224    5.7521  -26.1882 H   0  0  0  0  0  0  0  0  0  0  0  0
  -14.8392    6.5106  -30.1024 H   0  0  0  0  0  0  0  0  0  0  0  0
  -12.9862    7.9865  -30.8664 H   0  0  0  0  0  0  0  0  0  0  0  0
  -11.9191    8.7798  -26.8158 H   0  0  0  0  0  0  0  0  0  0  0  0
  -13.7263    7.2537  -26.0239 H   0  0  0  0  0  0  0  0  0  0  0  0
  -26.4721    3.3148  -25.7883 H   0  0  0  0  0  0  0  0  0  0  0  0
  -25.9071    4.2390  -27.6246 H   0  0  0  0  0  0  0  0  0  0  0  0
  -25.5815    1.1464  -28.0870 H   0  0  0  0  0  0  0  0  0  0  0  0
  -26.8256    2.2185  -28.7933 H   0  0  0  0  0  0  0  0  0  0  0  0
  -23.5998    4.3088  -28.0047 H   0  0  0  0  0  0  0  0  0  0  0  0
  -21.1488    1.6649  -26.9236 H   0  0  0  0  0  0  0  0  0  0  0  0
  -23.4486    1.3746  -27.1060 H   0  0  0  0  0  0  0  0  0  0  0  0
  -23.0216    2.7491  -26.1060 H   0  0  0  0  0  0  0  0  0  0  0  0
  2  1  1  0
  4  2  2  0
  6 11  1  0
  6  3  1  0
  6  7  1  0
  7  8  1  0
  8  9  1  0
  9 10  1  0
  9  2  1  0
 10 11  1  0
 12 17  2  0
 12 13  1  0
 13 14  2  0
 14 15  1  0
 14  5  1  0
 15 16  2  0
 16 17  1  0
 17  1  1  0
 21 24  1  0
 21 22  1  0
 21 18  1  0
 22 23  1  0
 23 24  1  0
 23 19  2  0
 23 20  2  0
 25  3  1  0
 26 25  1  0
 26 24  1  0
  1 27  1  0
  3 28  1  0
  3 29  1  0
  7 30  1  0
  7 31  1  0
  8 32  1  0
  8 33  1  0
 10 34  1  0
 10 35  1  0
 11 36  1  0
 11 37  1  0
 12 38  1  0
 13 39  1  0
 15 40  1  0
 16 41  1  0
 18 42  1  0
 21 43  1  6
 22 44  1  0
 22 45  1  0
 24 46  1  6
 25 47  1  0
 26 48  1  0
 26 49  1  0
M  END
