LIG
     RDKit          3D

 49 50  0  0  0  0  0  0  0  0999 V2000
  -15.6382   10.4971  -25.6912 N   0  0  0  0  0  0  0  0  0  0  0  0
  -12.6217    8.4909  -29.0784 C   0  0  0  0  0  0  0  0  0  0  0  0
  -15.7141   12.4263  -24.2052 C   0  0  0  0  0  0  0  0  0  0  0  0
  -18.4680    8.6035  -26.8024 C   0  0  0  0  0  0  0  0  0  0  0  0
  -14.8860   11.6533  -25.2579 C   0  0  0  0  0  0  0  0  0  0  0  0
  -14.9760   13.6013  -23.7087 N   0  0  0  0  0  0  0  0  0  0  0  0
  -17.3421    8.4598  -25.9291 O   0  0  0  0  0  0  0  0  0  0  0  0
  -13.8074   12.0586  -25.5948 O   0  0  0  0  0  0  0  0  0  0  0  0
  -16.5312    6.0404  -27.4166 N   0  0  0  0  0  0  0  0  0  0  0  0
  -17.3310    5.4149  -26.3568 C   0  0  0  0  0  0  0  0  0  0  0  0
  -21.8682    3.2199  -26.6536 C   0  0  0  0  0  0  0  0  0  0  0  0
  -17.6499    5.8214  -25.3001 O   0  0  0  0  0  0  0  0  0  0  0  0
  -14.7205    7.3303  -28.2830 C   0  0  0  0  0  0  0  0  0  0  0  0
  -15.8419    7.2565  -27.4442 C   0  0  0  0  0  0  0  0  0  0  0  0
  -16.1748    8.3639  -26.6505 C   0  0  0  0  0  0  0  0  0  0  0  0
  -15.3008    9.4565  -26.5611 C   0  0  0  0  0  0  0  0  0  0  0  0
  -14.1460    9.4746  -27.3373 C   0  0  0  0  0  0  0  0  0  0  0  0
  -13.8665    8.4396  -28.2391 C   0  0  0  0  0  0  0  0  0  0  0  0
  -20.5808    2.5837  -26.9046 N   0  0  0  0  0  0  0  0  0  0  0  0
  -19.6371    2.8674  -25.8156 C   0  0  0  0  0  0  0  0  0  0  0  0
  -18.2246    2.8861  -26.4411 C   0  0  0  0  0  0  0  0  0  0  0  0
  -17.5852    4.1204  -26.9870 N   0  0  0  0  0  0  0  0  0  0  0  0
  -18.9070    4.1825  -27.8131 C   0  0  0  0  0  0  0  0  0  0  0  0
  -19.9561    3.0794  -28.1386 C   0  0  0  0  0  0  0  0  0  0  0  0
  -16.4804   10.4186  -25.1283 H   0  0  0  0  0  0  0  0  0  0  0  0
  -11.7596    8.1582  -28.4921 H   0  0  0  0  0  0  0  0  0  0  0  0
  -12.7150    7.8494  -29.9611 H   0  0  0  0  0  0  0  0  0  0  0  0
  -12.4381    9.5099  -29.4351 H   0  0  0  0  0  0  0  0  0  0  0  0
  -16.6477   12.7604  -24.6686 H   0  0  0  0  0  0  0  0  0  0  0  0
  -15.9435   11.7639  -23.3648 H   0  0  0  0  0  0  0  0  0  0  0  0
  -19.3484    8.7837  -26.1785 H   0  0  0  0  0  0  0  0  0  0  0  0
  -18.3417    9.4683  -27.4638 H   0  0  0  0  0  0  0  0  0  0  0  0
  -18.6541    7.7023  -27.3927 H   0  0  0  0  0  0  0  0  0  0  0  0
  -14.1260   13.2731  -23.2378 H   0  0  0  0  0  0  0  0  0  0  0  0
  -14.6064   14.0882  -24.5305 H   0  0  0  0  0  0  0  0  0  0  0  0
  -16.3833    5.3715  -28.1587 H   0  0  0  0  0  0  0  0  0  0  0  0
  -22.3100    2.8351  -25.7279 H   0  0  0  0  0  0  0  0  0  0  0  0
  -21.7798    4.3061  -26.5658 H   0  0  0  0  0  0  0  0  0  0  0  0
  -22.5750    2.9927  -27.4592 H   0  0  0  0  0  0  0  0  0  0  0  0
  -14.4713    6.4948  -28.9340 H   0  0  0  0  0  0  0  0  0  0  0  0
  -13.4589   10.3042  -27.2576 H   0  0  0  0  0  0  0  0  0  0  0  0
  -19.8345    3.8172  -25.3017 H   0  0  0  0  0  0  0  0  0  0  0  0
  -19.7106    2.0622  -25.0762 H   0  0  0  0  0  0  0  0  0  0  0  0
  -17.5696    2.6838  -25.5784 H   0  0  0  0  0  0  0  0  0  0  0  0
  -17.9998    2.0285  -27.0968 H   0  0  0  0  0  0  0  0  0  0  0  0
  -19.4644    5.0535  -27.4288 H   0  0  0  0  0  0  0  0  0  0  0  0
  -18.5431    4.5286  -28.7925 H   0  0  0  0  0  0  0  0  0  0  0  0
  -19.4749    2.2396  -28.6520 H   0  0  0  0  0  0  0  0  0  0  0  0
  -20.7007    3.4672  -28.8419 H   0  0  0  0  0  0  0  0  0  0  0  0
  5  1  1  0
  5  3  1  0
  6  3  1  0
  7  4  1  0
  8  5  2  0
 10  9  1  0
 12 10  2  0
 13 18  2  0
 13 14  1  0
 14 15  2  0
 15 16  1  0
 15  7  1  0
 16 17  2  0
 16  1  1  0
 17 18  1  0
 18  2  1  0
 19 24  1  0
 19 11  1  0
 19 20  1  0
 20 21  1  0
 21 22  1  0
 22 23  1  0
 22 10  1  0
 23 24  1  0
  9 14  1  0
  1 25  1  0
  2 26  1  0
  2 27  1  0
  2 28  1  0
  3 29  1  0
  3 30  1  0
  4 31  1  0
  4 32  1  0
  4 33  1  0
  6 34  1  0
  6 35  1  0
  9 36  1  0
 11 37  1  0
 11 38  1  0
 11 39  1  0
 13 40  1  0
 17 41  1  0
 20 42  1  0
 20 43  1  0
 21 44  1  0
 21 45  1  0
 23 46  1  0
 23 47  1  0
 24 48  1  0
 24 49  1  0
M  END
