LIG
     RDKit          3D

 50 51  0  0  0  0  0  0  0  0999 V2000
  -15.8563    4.2928  -27.4329 N   0  0  0  0  0  0  0  0  0  0  0  0
  -14.3610    5.4948  -27.8878 C   0  0  0  0  0  0  0  0  0  0  0  0
  -16.5691    0.1489  -27.2695 C   0  0  0  0  0  0  0  0  0  0  0  0
  -15.7540    1.3010  -27.0766 O   0  0  0  0  0  0  0  0  0  0  0  0
  -15.6365    2.0812  -28.1859 C   0  0  0  0  0  0  0  0  0  0  0  0
  -16.1239    1.8160  -29.2826 O   0  0  0  0  0  0  0  0  0  0  0  0
  -14.8542    3.3527  -27.8927 C   0  0  0  0  0  0  0  0  0  0  0  0
  -13.3970    5.5123  -28.1766 O   0  0  0  0  0  0  0  0  0  0  0  0
  -15.9222    3.8791  -25.5917 C   0  0  0  0  0  0  0  0  0  0  0  0
  -20.4294    3.8367  -26.9814 C   0  0  0  0  0  0  0  0  0  0  0  0
  -15.2336    3.6519  -24.8229 O   0  0  0  0  0  0  0  0  0  0  0  0
  -12.8920    8.3342  -28.5023 F   0  0  0  0  0  0  0  0  0  0  0  0
  -15.2569    6.7562  -27.7438 C   0  0  2  0  0  0  0  0  0  0  0  0
  -15.0813    7.6332  -29.0090 C   0  0  0  0  0  0  0  0  0  0  0  0
  -14.1323    8.8098  -28.8090 C   0  0  1  0  0  0  0  0  0  0  0  0
  -14.5907    9.7188  -27.6727 C   0  0  0  0  0  0  0  0  0  0  0  0
  -15.3059    8.9703  -26.5460 C   0  0  0  0  0  0  0  0  0  0  0  0
  -14.8729    7.5121  -26.4649 C   0  0  0  0  0  0  0  0  0  0  0  0
  -20.3155    4.5131  -25.6814 N   0  0  0  0  0  0  0  0  0  0  0  0
  -19.8839    3.5772  -24.6540 C   0  0  0  0  0  0  0  0  0  0  0  0
  -18.3567    3.4549  -24.4898 C   0  0  0  0  0  0  0  0  0  0  0  0
  -17.4159    3.8841  -25.5773 N   0  0  0  0  0  0  0  0  0  0  0  0
  -17.9272    5.2569  -25.1956 C   0  0  0  0  0  0  0  0  0  0  0  0
  -19.3278    5.6048  -25.7697 C   0  0  0  0  0  0  0  0  0  0  0  0
  -16.6491   -0.3742  -26.3129 H   0  0  0  0  0  0  0  0  0  0  0  0
  -17.5761    0.4346  -27.5902 H   0  0  0  0  0  0  0  0  0  0  0  0
  -16.1056   -0.5223  -27.9973 H   0  0  0  0  0  0  0  0  0  0  0  0
  -14.4299    3.5889  -28.8728 H   0  0  0  0  0  0  0  0  0  0  0  0
  -14.0635    3.1453  -27.1635 H   0  0  0  0  0  0  0  0  0  0  0  0
  -21.1930    3.0522  -26.9338 H   0  0  0  0  0  0  0  0  0  0  0  0
  -20.7556    4.5361  -27.7572 H   0  0  0  0  0  0  0  0  0  0  0  0
  -19.4891    3.3798  -27.3090 H   0  0  0  0  0  0  0  0  0  0  0  0
  -16.3158    6.4849  -27.7087 H   0  0  0  0  0  0  0  0  0  0  0  0
  -14.7368    7.0249  -29.8526 H   0  0  0  0  0  0  0  0  0  0  0  0
  -16.0650    8.0337  -29.2850 H   0  0  0  0  0  0  0  0  0  0  0  0
  -14.0298    9.3863  -29.7339 H   0  0  0  0  0  0  0  0  0  0  0  0
  -13.7167   10.2248  -27.2517 H   0  0  0  0  0  0  0  0  0  0  0  0
  -15.2626   10.4950  -28.0576 H   0  0  0  0  0  0  0  0  0  0  0  0
  -15.1214    9.4775  -25.5928 H   0  0  0  0  0  0  0  0  0  0  0  0
  -16.3900    9.0138  -26.7121 H   0  0  0  0  0  0  0  0  0  0  0  0
  -15.3283    7.0335  -25.5923 H   0  0  0  0  0  0  0  0  0  0  0  0
  -13.7901    7.4626  -26.2966 H   0  0  0  0  0  0  0  0  0  0  0  0
  -20.2839    3.9220  -23.6920 H   0  0  0  0  0  0  0  0  0  0  0  0
  -20.3340    2.5863  -24.7990 H   0  0  0  0  0  0  0  0  0  0  0  0
  -18.0024    3.7327  -23.4813 H   0  0  0  0  0  0  0  0  0  0  0  0
  -18.1672    2.3695  -24.4681 H   0  0  0  0  0  0  0  0  0  0  0  0
  -17.7896    5.5453  -24.1382 H   0  0  0  0  0  0  0  0  0  0  0  0
  -17.2511    5.9611  -25.6927 H   0  0  0  0  0  0  0  0  0  0  0  0
  -19.2110    5.9516  -26.8048 H   0  0  0  0  0  0  0  0  0  0  0  0
  -19.7118    6.4658  -25.2091 H   0  0  0  0  0  0  0  0  0  0  0  0
  2  1  1  0
  4  3  1  0
  5  4  1  0
  6  5  2  0
  7  1  1  0
  7  5  1  0
  8  2  2  0
 11  9  2  0
  9  1  1  0
 13  2  1  0
 13 18  1  0
 13 14  1  0
 14 15  1  0
 15 16  1  0
 16 17  1  0
 17 18  1  0
 19 24  1  0
 19 10  1  0
 19 20  1  0
 20 21  1  0
 21 22  1  0
 22 23  1  0
 22  9  1  0
 23 24  1  0
 12 15  1  0
  3 25  1  0
  3 26  1  0
  3 27  1  0
  7 28  1  0
  7 29  1  0
 10 30  1  0
 10 31  1  0
 10 32  1  0
 13 33  1  1
 14 34  1  0
 14 35  1  0
 15 36  1  6
 16 37  1  0
 16 38  1  0
 17 39  1  0
 17 40  1  0
 18 41  1  0
 18 42  1  0
 20 43  1  0
 20 44  1  0
 21 45  1  0
 21 46  1  0
 23 47  1  0
 23 48  1  0
 24 49  1  0
 24 50  1  0
M  END
