LIG
     RDKit          3D

 36 37  0  0  0  0  0  0  0  0999 V2000
  -24.9234    1.4961  -26.1772 O   0  0  0  0  0  0  0  0  0  0  0  0
  -24.1266    2.6917  -30.5318 O   0  0  0  0  0  0  0  0  0  0  0  0
  -26.4073    3.5763  -29.8875 O   0  0  0  0  0  0  0  0  0  0  0  0
  -25.2965    4.4473  -27.1457 C   0  0  0  0  0  0  0  0  0  0  0  0
  -16.4167    0.3939  -25.9383 C   0  0  0  0  0  0  0  0  0  0  0  0
  -22.3496    2.0201  -28.0844 C   0  0  0  0  0  0  0  0  0  0  0  0
  -23.0847    3.2289  -27.5038 C   0  0  0  0  0  0  0  0  0  0  0  0
  -16.8624    1.4556  -26.7704 O   0  0  0  0  0  0  0  0  0  0  0  0
  -25.4336    2.1563  -27.3544 C   0  0  2  0  0  0  0  0  0  0  0  0
  -25.4399    1.4563  -28.6806 C   0  0  0  0  0  0  0  0  0  0  0  0
  -25.1426    2.9685  -29.5396 S   0  0  0  0  0  0  0  0  0  0  0  0
  -24.5871    3.3177  -27.8720 C   0  0  1  0  0  0  0  0  0  0  0  0
  -20.4958    0.7535  -26.9525 C   0  0  0  0  0  0  0  0  0  0  0  0
  -19.1502    0.5698  -26.6321 C   0  0  0  0  0  0  0  0  0  0  0  0
  -18.2070    1.5257  -27.0066 C   0  0  0  0  0  0  0  0  0  0  0  0
  -18.6225    2.6651  -27.6984 C   0  0  0  0  0  0  0  0  0  0  0  0
  -19.9662    2.8498  -28.0239 C   0  0  0  0  0  0  0  0  0  0  0  0
  -20.9132    1.8919  -27.6532 C   0  0  0  0  0  0  0  0  0  0  0  0
  -24.9985    2.1536  -25.4633 H   0  0  0  0  0  0  0  0  0  0  0  0
  -24.8886    4.6028  -26.1442 H   0  0  0  0  0  0  0  0  0  0  0  0
  -26.3397    4.2618  -26.9166 H   0  0  0  0  0  0  0  0  0  0  0  0
  -25.3026    5.3216  -27.7900 H   0  0  0  0  0  0  0  0  0  0  0  0
  -16.8947    0.4320  -24.9534 H   0  0  0  0  0  0  0  0  0  0  0  0
  -16.5838   -0.5734  -26.4209 H   0  0  0  0  0  0  0  0  0  0  0  0
  -15.3412    0.5112  -25.7865 H   0  0  0  0  0  0  0  0  0  0  0  0
  -22.8608    1.1000  -27.7901 H   0  0  0  0  0  0  0  0  0  0  0  0
  -22.3445    2.0385  -29.1752 H   0  0  0  0  0  0  0  0  0  0  0  0
  -22.9811    3.2040  -26.4098 H   0  0  0  0  0  0  0  0  0  0  0  0
  -22.5697    4.1399  -27.8017 H   0  0  0  0  0  0  0  0  0  0  0  0
  -26.4727    2.4251  -27.1714 H   0  0  0  0  0  0  0  0  0  0  0  0
  -24.6162    0.7556  -28.7844 H   0  0  0  0  0  0  0  0  0  0  0  0
  -26.4077    1.0224  -28.9317 H   0  0  0  0  0  0  0  0  0  0  0  0
  -21.2155   -0.0131  -26.6734 H   0  0  0  0  0  0  0  0  0  0  0  0
  -18.8712   -0.3356  -26.1062 H   0  0  0  0  0  0  0  0  0  0  0  0
  -17.8936    3.4127  -28.0029 H   0  0  0  0  0  0  0  0  0  0  0  0
  -20.2609    3.7295  -28.5951 H   0  0  0  0  0  0  0  0  0  0  0  0
  7  6  1  0
  8  5  1  0
  9 12  1  0
  9 10  1  0
  9  1  1  0
 10 11  1  0
 11 12  1  0
 11  2  2  0
 11  3  2  0
 13 18  2  0
 13 14  1  0
 14 15  2  0
 15 16  1  0
 15  8  1  0
 16 17  2  0
 17 18  1  0
 18  6  1  0
 12  4  1  1
  7 12  1  0
  1 19  1  0
  4 20  1  0
  4 21  1  0
  4 22  1  0
  5 23  1  0
  5 24  1  0
  5 25  1  0
  6 26  1  0
  6 27  1  0
  7 28  1  0
  7 29  1  0
  9 30  1  1
 10 31  1  0
 10 32  1  0
 13 33  1  0
 14 34  1  0
 16 35  1  0
 17 36  1  0
M  END
