LIG
     RDKit          3D

 58 61  0  0  0  0  0  0  0  0999 V2000
  -13.3680    9.7320  -29.8130 C   0  0  0  0  0  0  0  0  0  0  0  0
  -16.3290    6.4830  -26.6710 C   0  0  0  0  0  0  0  0  0  0  0  0
  -21.0420    3.6610  -26.6120 C   0  0  0  0  0  0  0  0  0  0  0  0
  -15.6940    6.6860  -25.6370 O   0  0  0  0  0  0  0  0  0  0  0  0
  -10.8450    8.8730  -29.0060 O   0  0  0  0  0  0  0  0  0  0  0  0
  -15.6190    8.6560  -28.3170 N   0  0  0  0  0  0  0  0  0  0  0  0
  -16.8470    8.1770  -28.1480 C   0  0  0  0  0  0  0  0  0  0  0  0
  -17.1230    6.7840  -28.4360 C   0  0  0  0  0  0  0  0  0  0  0  0
  -16.0530    5.9990  -28.8490 C   0  0  0  0  0  0  0  0  0  0  0  0
  -14.8200    6.5310  -28.9760 N   0  0  0  0  0  0  0  0  0  0  0  0
  -14.6500    7.8380  -28.7420 C   0  0  1  0  0  0  0  0  0  0  0  0
  -18.5700    4.7680  -28.6430 N   0  0  0  0  0  0  0  0  0  0  0  0
  -18.4760    6.1560  -28.2100 C   0  0  2  0  0  0  0  0  0  0  0  0
  -16.2070    4.5290  -29.1230 C   0  0  0  0  0  0  0  0  0  0  0  0
  -17.3690    3.9830  -28.3300 C   0  0  0  0  0  0  0  0  0  0  0  0
  -19.7110    4.2590  -26.5140 N   0  0  0  0  0  0  0  0  0  0  0  0
  -19.6850    5.3230  -25.5050 C   0  0  0  0  0  0  0  0  0  0  0  0
  -18.2920    5.8930  -25.3380 C   0  0  0  0  0  0  0  0  0  0  0  0
  -17.6410    6.1310  -26.6280 N   0  0  0  0  0  0  0  0  0  0  0  0
  -19.2500    4.7120  -27.8330 C   0  0  0  0  0  0  0  0  0  0  0  0
  -13.7770    6.7940  -29.2590 C   0  0  0  0  0  0  0  0  0  0  0  0
  -12.5440    7.3500  -29.5440 C   0  0  0  0  0  0  0  0  0  0  0  0
  -12.0700    8.3430  -28.7340 C   0  0  1  0  0  0  0  0  0  0  0  0
  -12.7480    8.7790  -27.6300 C   0  0  0  0  0  0  0  0  0  0  0  0
  -13.9850    8.2210  -27.3530 C   0  0  0  0  0  0  0  0  0  0  0  0
  -12.1065    9.3025  -29.4095 N   0  0  0  0  0  0  0  0  0  0  0  0
  -13.9847    9.9420  -28.9267 H   0  0  0  0  0  0  0  0  0  0  0  0
  -13.2685   10.6469  -30.4156 H   0  0  0  0  0  0  0  0  0  0  0  0
  -13.8474    8.9465  -30.4156 H   0  0  0  0  0  0  0  0  0  0  0  0
  -15.8276    6.5879  -27.6444 H   0  0  0  0  0  0  0  0  0  0  0  0
  -21.4391    3.4826  -25.6018 H   0  0  0  0  0  0  0  0  0  0  0  0
  -21.7121    4.3446  -27.1540 H   0  0  0  0  0  0  0  0  0  0  0  0
  -20.9759    2.7061  -27.1540 H   0  0  0  0  0  0  0  0  0  0  0  0
  -15.4156    9.6468  -28.1227 H   0  0  0  0  0  0  0  0  0  0  0  0
  -17.6517    8.8362  -27.7905 H   0  0  0  0  0  0  0  0  0  0  0  0
  -17.0928    8.4406  -29.1873 H   0  0  0  0  0  0  0  0  0  0  0  0
  -14.0214    5.9405  -29.2489 H   0  0  0  0  0  0  0  0  0  0  0  0
  -19.3949    4.3771  -29.1201 H   0  0  0  0  0  0  0  0  0  0  0  0
  -15.5693    3.9405  -29.7991 H   0  0  0  0  0  0  0  0  0  0  0  0
  -15.5296    4.3021  -28.2866 H   0  0  0  0  0  0  0  0  0  0  0  0
  -17.3238    3.1348  -27.6311 H   0  0  0  0  0  0  0  0  0  0  0  0
  -17.6060    3.2924  -29.1527 H   0  0  0  0  0  0  0  0  0  0  0  0
  -20.5658    5.6638  -24.9410 H   0  0  0  0  0  0  0  0  0  0  0  0
  -19.4735    4.5775  -24.7243 H   0  0  0  0  0  0  0  0  0  0  0  0
  -17.8251    6.1031  -24.3644 H   0  0  0  0  0  0  0  0  0  0  0  0
  -17.8777    4.8742  -25.3169 H   0  0  0  0  0  0  0  0  0  0  0  0
  -19.4327    4.0257  -28.6730 H   0  0  0  0  0  0  0  0  0  0  0  0
  -20.2254    5.1886  -28.0102 H   0  0  0  0  0  0  0  0  0  0  0  0
  -14.0527    5.7384  -29.3995 H   0  0  0  0  0  0  0  0  0  0  0  0
  -13.4395    6.5698  -28.2363 H   0  0  0  0  0  0  0  0  0  0  0  0
  -11.9563    7.0001  -30.4055 H   0  0  0  0  0  0  0  0  0  0  0  0
  -13.0308    8.1026  -30.1817 H   0  0  0  0  0  0  0  0  0  0  0  0
  -12.5894    9.0926  -29.3490 H   0  0  0  0  0  0  0  0  0  0  0  0
  -12.3213    9.5546  -26.9771 H   0  0  0  0  0  0  0  0  0  0  0  0
  -13.2348    9.5571  -28.2363 H   0  0  0  0  0  0  0  0  0  0  0  0
  -14.4246    8.0712  -26.3559 H   0  0  0  0  0  0  0  0  0  0  0  0
  -14.4468    9.2179  -27.4068 H   0  0  0  0  0  0  0  0  0  0  0  0
    0.0000    0.0000    0.0000 H   0  0  0  0  0  0  0  0  0  0  0  0
  4  2  2  0
 11  6  1  6
  6  7  1  0
  7  8  1  0
  8  9  2  0
  8 13  1  0
  9 10  1  0
  9 14  1  0
 10 11  1  0
 12 15  1  0
 13 12  1  6
 14 15  1  0
 16 20  1  0
 16  3  1  0
 16 17  1  0
 17 18  1  0
 18 19  1  0
 19  2  1  0
 21 22  1  0
 22 23  1  0
 23 24  1  0
 23  5  1  0
 24 25  1  0
 11 21  1  0
 11 25  1  0
 13 19  1  0
 13 20  1  0
 26  1  1  0
 26  5  1  0
  1 27  1  0
  1 28  1  0
  1 29  1  0
  2 30  1  0
  3 31  1  0
  3 32  1  0
  3 33  1  0
  6 34  1  0
  7 35  1  0
  7 36  1  0
 10 37  1  0
 12 38  1  0
 14 39  1  0
 14 40  1  0
 15 41  1  0
 15 42  1  0
 17 43  1  0
 17 44  1  0
 18 45  1  0
 18 46  1  0
 20 47  1  0
 20 48  1  0
 21 49  1  0
 21 50  1  0
 22 51  1  0
 22 52  1  0
 23 53  1  6
 24 54  1  0
 24 55  1  0
 25 56  1  0
 25 57  1  0
 26 58  1  0
M  END
