LIG
     RDKit          3D

 60 62  0  0  0  0  0  0  0  0999 V2000
  -15.0505    4.7327  -28.6171 N   0  0  0  0  0  0  0  0  0  0  0  0
  -13.8212    5.4613  -28.6922 C   0  0  0  0  0  0  0  0  0  0  0  0
  -18.0132    1.7831  -25.1575 C   0  0  0  0  0  0  0  0  0  0  0  0
  -17.0131    2.3471  -26.8042 N   0  0  0  0  0  0  0  0  0  0  0  0
  -15.7586    3.3217  -26.7584 C   0  0  0  0  0  0  0  0  0  0  0  0
  -15.2798    3.9374  -25.9058 O   0  0  0  0  0  0  0  0  0  0  0  0
  -15.3203    3.3706  -28.2269 C   0  0  0  0  0  0  0  0  0  0  0  0
  -12.6930    5.1055  -28.5267 O   0  0  0  0  0  0  0  0  0  0  0  0
  -25.3488    3.6870  -26.3708 C   0  0  0  0  0  0  0  0  0  0  0  0
  -22.0263    2.4052  -28.0824 C   0  0  0  0  0  0  0  0  0  0  0  0
  -23.0021    3.1017  -27.1184 C   0  0  0  0  0  0  0  0  0  0  0  0
  -25.9592    3.4242  -30.7027 O   0  0  0  0  0  0  0  0  0  0  0  0
  -24.6792    0.7940  -27.4259 O   0  0  0  0  0  0  0  0  0  0  0  0
  -14.1254    6.9373  -29.0440 C   0  0  0  0  0  0  0  0  0  0  0  0
  -12.8846    7.6874  -29.5700 C   0  0  0  0  0  0  0  0  0  0  0  0
  -12.9215    9.1973  -29.3260 C   0  0  0  0  0  0  0  0  0  0  0  0
  -14.3445    9.7344  -29.3160 C   0  0  0  0  0  0  0  0  0  0  0  0
  -15.1799    9.0903  -28.2092 C   0  0  0  0  0  0  0  0  0  0  0  0
  -14.7238    7.6751  -27.8399 C   0  0  0  0  0  0  0  0  0  0  0  0
  -25.0275    1.8453  -27.9340 C   0  0  0  0  0  0  0  0  0  0  0  0
  -24.4705    3.1924  -27.5345 C   0  0  1  0  0  0  0  0  0  0  0  0
  -24.7709    3.8836  -28.7590 N   0  0  0  0  0  0  0  0  0  0  0  0
  -25.6376    3.1697  -29.5570 C   0  0  0  0  0  0  0  0  0  0  0  0
  -25.9596    2.0314  -28.9003 N   0  0  0  0  0  0  0  0  0  0  0  0
  -19.9680    1.0417  -27.4947 C   0  0  0  0  0  0  0  0  0  0  0  0
  -18.7069    0.8659  -26.9023 C   0  0  0  0  0  0  0  0  0  0  0  0
  -17.9630    2.0131  -25.9680 C   0  0  0  0  0  0  0  0  0  0  0  0
  -18.8430    3.4017  -26.1864 C   0  0  0  0  0  0  0  0  0  0  0  0
  -20.0542    3.4556  -26.8818 C   0  0  0  0  0  0  0  0  0  0  0  0
  -20.6383    2.2931  -27.4531 C   0  0  0  0  0  0  0  0  0  0  0  0
  -15.8242    5.3772  -28.7353 H   0  0  0  0  0  0  0  0  0  0  0  0
  -17.5707    2.4825  -24.2355 H   0  0  0  0  0  0  0  0  0  0  0  0
  -19.2254    1.5996  -24.7821 H   0  0  0  0  0  0  0  0  0  0  0  0
  -17.4367    0.7769  -24.7197 H   0  0  0  0  0  0  0  0  0  0  0  0
  -16.0847    2.9805  -28.9037 H   0  0  0  0  0  0  0  0  0  0  0  0
  -14.4030    2.7864  -28.3205 H   0  0  0  0  0  0  0  0  0  0  0  0
  -25.0711    3.1963  -25.4306 H   0  0  0  0  0  0  0  0  0  0  0  0
  -25.2899    4.7640  -26.2201 H   0  0  0  0  0  0  0  0  0  0  0  0
  -26.4056    3.4590  -26.5310 H   0  0  0  0  0  0  0  0  0  0  0  0
  -22.3879    1.4002  -28.3233 H   0  0  0  0  0  0  0  0  0  0  0  0
  -21.9346    2.9382  -29.0300 H   0  0  0  0  0  0  0  0  0  0  0  0
  -22.9453    2.5739  -26.1550 H   0  0  0  0  0  0  0  0  0  0  0  0
  -22.6408    4.1097  -26.9219 H   0  0  0  0  0  0  0  0  0  0  0  0
  -14.8678    6.9282  -29.8531 H   0  0  0  0  0  0  0  0  0  0  0  0
  -11.9520    7.2986  -29.1457 H   0  0  0  0  0  0  0  0  0  0  0  0
  -12.8158    7.5095  -30.6483 H   0  0  0  0  0  0  0  0  0  0  0  0
  -12.4438    9.4176  -28.3633 H   0  0  0  0  0  0  0  0  0  0  0  0
  -12.3296    9.7081  -30.0932 H   0  0  0  0  0  0  0  0  0  0  0  0
  -14.3424   10.8230  -29.1900 H   0  0  0  0  0  0  0  0  0  0  0  0
  -14.8117    9.5357  -30.2888 H   0  0  0  0  0  0  0  0  0  0  0  0
  -15.1466    9.7149  -27.3083 H   0  0  0  0  0  0  0  0  0  0  0  0
  -16.2290    9.0703  -28.5291 H   0  0  0  0  0  0  0  0  0  0  0  0
  -15.5693    7.1296  -27.4056 H   0  0  0  0  0  0  0  0  0  0  0  0
  -13.9693    7.7324  -27.0433 H   0  0  0  0  0  0  0  0  0  0  0  0
  -24.2718    4.6868  -29.1428 H   0  0  0  0  0  0  0  0  0  0  0  0
  -26.4748    1.3060  -29.3647 H   0  0  0  0  0  0  0  0  0  0  0  0
  -20.4218    0.2016  -28.0163 H   0  0  0  0  0  0  0  0  0  0  0  0
  -18.1584   -0.0688  -27.0462 H   0  0  0  0  0  0  0  0  0  0  0  0
  -18.3864    4.3292  -25.8233 H   0  0  0  0  0  0  0  0  0  0  0  0
  -20.5311    4.4281  -26.9980 H   0  0  0  0  0  0  0  0  0  0  0  0
  2  1  1  0
  4  3  1  0
  5  4  1  0
  6  5  2  0
  7  1  1  0
  7  5  1  0
  8  2  2  0
 11 10  1  0
 14  2  1  0
 14 19  1  0
 14 15  1  0
 15 16  1  0
 16 17  1  0
 17 18  1  0
 18 19  1  0
 20 21  1  0
 20 24  1  0
 20 13  2  0
 21 11  1  1
 21  9  1  0
 21 22  1  0
 22 23  1  0
 23 24  1  0
 23 12  2  0
 25 30  2  0
 25 26  1  0
 26 27  2  0
 27 28  1  0
 28 29  2  0
 29 30  1  0
 30 10  1  0
  4 27  1  0
  1 31  1  0
  3 32  1  0
  3 33  1  0
  3 34  1  0
  7 35  1  0
  7 36  1  0
  9 37  1  0
  9 38  1  0
  9 39  1  0
 10 40  1  0
 10 41  1  0
 11 42  1  0
 11 43  1  0
 14 44  1  0
 15 45  1  0
 15 46  1  0
 16 47  1  0
 16 48  1  0
 17 49  1  0
 17 50  1  0
 18 51  1  0
 18 52  1  0
 19 53  1  0
 19 54  1  0
 22 55  1  0
 24 56  1  0
 25 57  1  0
 26 58  1  0
 28 59  1  0
 29 60  1  0
M  END
