LIG
     RDKit          3D

 56 58  0  0  0  0  0  0  0  0999 V2000
  -25.5137    3.1090  -30.0733 C   0  0  0  0  0  0  0  0  0  0  0  0
  -25.8671    1.6497  -27.6225 O   0  0  0  0  0  0  0  0  0  0  0  0
  -25.2441    3.6254  -28.7004 C   0  0  0  0  0  0  0  0  0  0  0  0
  -25.0322    2.4479  -27.8000 C   0  0  0  0  0  0  0  0  0  0  0  0
  -26.3213    2.0301  -30.0643 F   0  0  0  0  0  0  0  0  0  0  0  0
  -26.1060    4.0337  -30.8540 F   0  0  0  0  0  0  0  0  0  0  0  0
  -24.3741    2.7185  -30.6946 F   0  0  0  0  0  0  0  0  0  0  0  0
  -20.6077    2.1403  -26.6660 N   0  0  0  0  0  0  0  0  0  0  0  0
  -21.2165    2.4046  -27.9790 C   0  0  0  0  0  0  0  0  0  0  0  0
  -22.6347    1.8271  -28.0520 C   0  0  0  0  0  0  0  0  0  0  0  0
  -23.6645    2.5647  -27.2086 N   0  0  0  0  0  0  0  0  0  0  0  0
  -22.9882    1.7558  -26.1367 C   0  0  0  0  0  0  0  0  0  0  0  0
  -21.6509    2.3254  -25.6532 C   0  0  0  0  0  0  0  0  0  0  0  0
  -14.5082    5.3349  -25.6205 O   0  0  0  0  0  0  0  0  0  0  0  0
  -13.8283    4.6964  -26.4045 C   0  0  0  0  0  0  0  0  0  0  0  0
  -12.6684    4.1293  -26.0072 O   0  0  0  0  0  0  0  0  0  0  0  0
  -12.7531    7.3259  -29.3942 C   0  0  0  0  0  0  0  0  0  0  0  0
  -13.6959    6.8719  -28.4963 C   0  0  0  0  0  0  0  0  0  0  0  0
  -13.8200    7.7918  -27.4046 C   0  0  0  0  0  0  0  0  0  0  0  0
  -12.9560    8.8557  -27.5071 C   0  0  0  0  0  0  0  0  0  0  0  0
  -11.9898    8.7625  -28.9051 S   0  0  0  0  0  0  0  0  0  0  0  0
  -15.9838    5.7950  -28.4904 C   0  0  0  0  0  0  0  0  0  0  0  0
  -14.4940    5.6257  -28.7093 C   0  0  2  0  0  0  0  0  0  0  0  0
  -14.1145    4.4111  -27.8620 C   0  0  2  0  0  0  0  0  0  0  0  0
  -15.3195    3.4789  -27.9711 C   0  0  0  0  0  0  0  0  0  0  0  0
  -16.5089    4.3662  -28.3715 C   0  0  1  0  0  0  0  0  0  0  0  0
  -19.5358    3.1019  -26.3864 C   0  0  0  0  0  0  0  0  0  0  0  0
  -18.3809    3.0137  -27.3749 C   0  0  0  0  0  0  0  0  0  0  0  0
  -17.6321    4.3346  -27.3496 C   0  0  0  0  0  0  0  0  0  0  0  0
  -24.4116    4.3227  -28.6804 H   0  0  0  0  0  0  0  0  0  0  0  0
  -26.1058    4.1494  -28.3093 H   0  0  0  0  0  0  0  0  0  0  0  0
  -21.2677    3.4816  -28.1829 H   0  0  0  0  0  0  0  0  0  0  0  0
  -20.6144    1.9403  -28.7646 H   0  0  0  0  0  0  0  0  0  0  0  0
  -22.9399    2.0491  -29.0831 H   0  0  0  0  0  0  0  0  0  0  0  0
  -22.7036    0.7241  -28.0698 H   0  0  0  0  0  0  0  0  0  0  0  0
  -23.6756    1.9164  -25.2898 H   0  0  0  0  0  0  0  0  0  0  0  0
  -23.0479    0.6559  -26.2182 H   0  0  0  0  0  0  0  0  0  0  0  0
  -21.3515    1.8216  -24.7269 H   0  0  0  0  0  0  0  0  0  0  0  0
  -21.8036    3.3877  -25.4187 H   0  0  0  0  0  0  0  0  0  0  0  0
  -12.4095    4.6552  -25.2058 H   0  0  0  0  0  0  0  0  0  0  0  0
  -12.4894    6.8775  -30.3352 H   0  0  0  0  0  0  0  0  0  0  0  0
  -14.5190    7.6920  -26.5822 H   0  0  0  0  0  0  0  0  0  0  0  0
  -12.8551    9.6904  -26.8305 H   0  0  0  0  0  0  0  0  0  0  0  0
  -16.1991    6.3710  -27.5828 H   0  0  0  0  0  0  0  0  0  0  0  0
  -16.4603    6.3287  -29.3210 H   0  0  0  0  0  0  0  0  0  0  0  0
  -14.3678    5.3357  -29.7610 H   0  0  0  0  0  0  0  0  0  0  0  0
  -13.2239    3.9398  -28.2892 H   0  0  0  0  0  0  0  0  0  0  0  0
  -15.4931    2.9147  -27.0482 H   0  0  0  0  0  0  0  0  0  0  0  0
  -15.1504    2.7393  -28.7609 H   0  0  0  0  0  0  0  0  0  0  0  0
  -16.8833    4.0437  -29.3517 H   0  0  0  0  0  0  0  0  0  0  0  0
  -19.9431    4.1229  -26.3764 H   0  0  0  0  0  0  0  0  0  0  0  0
  -19.1353    2.9189  -25.3803 H   0  0  0  0  0  0  0  0  0  0  0  0
  -17.7316    2.1699  -27.1165 H   0  0  0  0  0  0  0  0  0  0  0  0
  -18.7252    2.8478  -28.3985 H   0  0  0  0  0  0  0  0  0  0  0  0
  -18.3361    5.1463  -27.5788 H   0  0  0  0  0  0  0  0  0  0  0  0
  -17.2442    4.5275  -26.3412 H   0  0  0  0  0  0  0  0  0  0  0  0
  3  1  1  0
  4  3  1  0
  4  2  2  0
  1  5  1  0
  6  1  1  0
  7  1  1  0
  8 13  1  0
  8  9  1  0
  9 10  1  0
 10 11  1  0
 11  4  1  0
 11 12  1  0
 12 13  1  0
 15 14  2  0
 16 15  1  0
 17 18  2  0
 17 21  1  0
 18 19  1  0
 18 23  1  0
 19 20  2  0
 20 21  1  0
 22 23  1  0
 22 26  1  0
 23 24  1  0
 24 25  1  0
 24 15  1  0
 25 26  1  0
 27  8  1  0
 28 27  1  0
 29 28  1  0
 29 26  1  0
  3 30  1  0
  3 31  1  0
  9 32  1  0
  9 33  1  0
 10 34  1  0
 10 35  1  0
 12 36  1  0
 12 37  1  0
 13 38  1  0
 13 39  1  0
 16 40  1  0
 17 41  1  0
 19 42  1  0
 20 43  1  0
 22 44  1  0
 22 45  1  0
 23 46  1  6
 24 47  1  6
 25 48  1  0
 25 49  1  0
 26 50  1  6
 27 51  1  0
 27 52  1  0
 28 53  1  0
 28 54  1  0
 29 55  1  0
 29 56  1  0
M  END
