5rhm_A_705_1_5rhm+A+705+1__LIG
     RDKit          3D

 14 15  0  0  0  0  0  0  0  0999 V2000
  -37.3680   12.6200  -36.1350 N   0  0  0  0  0  0  0  0  0  0  0  0
  -40.6720   12.3360  -38.4960 C   0  0  0  0  0  0  0  0  0  0  0  0
  -41.6690   11.8230  -37.6370 C   0  0  0  0  0  0  0  0  0  0  0  0
  -41.4190   10.7110  -36.6530 C   0  0  0  0  0  0  0  0  0  0  0  0
  -39.2810   11.4100  -35.8000 C   0  0  0  0  0  0  0  0  0  0  0  0
  -38.6610   12.7100  -35.7450 C   0  0  0  0  0  0  0  0  0  0  0  0
  -40.5990   11.0770  -35.5000 N   0  0  0  0  0  0  0  0  0  0  0  0
  -42.9720   12.3800  -37.6970 C   0  0  0  0  0  0  0  0  0  0  0  0
  -43.2600   13.4440  -38.6210 C   0  0  0  0  0  0  0  0  0  0  0  0
  -42.2210   13.9080  -39.4590 C   0  0  0  0  0  0  0  0  0  0  0  0
  -40.9490   13.3650  -39.3800 C   0  0  0  0  0  0  0  0  0  0  0  0
  -38.2920   10.5050  -36.2520 C   0  0  0  0  0  0  0  0  0  0  0  0
  -43.9190   11.8790  -36.8690 F   0  0  0  0  0  0  0  0  0  0  0  0
  -37.1480   11.2960  -36.4460 N   0  0  0  0  0  0  0  0  0  0  0  0
  8 13  1  0
  8  9  1  0
  9 10  2  0
 10 11  1  0
 11  2  2  0
  2  3  1  0
  3  8  2  0
  4  3  1  0
  7  4  1  0
  5  7  1  0
  5  6  1  0
  6  1  2  0
  1 14  1  0
 14 12  1  0
 12  5  2  0
M  END
$$$$
