8um3_A_705_1_8um3+A+705+1__LIG
     RDKit          3D

  9 10  0  0  0  0  0  0  0  0999 V2000
  -16.7560    8.8680  -18.0320 N   0  0  0  0  0  0  0  0  0  0  0  0
  -15.2660    9.9660  -19.0350 N   0  0  0  0  0  0  0  0  0  0  0  0
  -14.0010   11.0750  -20.4520 C   0  0  0  0  0  0  0  0  0  0  0  0
  -14.0580   10.5230  -19.2780 N   0  0  0  0  0  0  0  0  0  0  0  0
  -15.5330    9.2940  -17.8950 N   0  0  0  0  0  0  0  0  0  0  0  0
  -17.2900    9.2530  -19.2210 N   0  0  0  0  0  0  0  0  0  0  0  0
  -16.3420    9.9410  -19.8380 C   0  0  0  0  0  0  0  0  0  0  0  0
  -16.2400   10.5750  -21.1030 C   0  0  0  0  0  0  0  0  0  0  0  0
  -15.0520   11.1450  -21.4140 C   0  0  0  0  0  0  0  0  0  0  0  0
  5  1  2  0
  5  2  1  0
  1  6  1  0
  2  4  1  0
  2  7  1  0
  6  7  2  0
  4  3  2  0
  7  8  1  0
  3  9  1  0
  8  9  2  0
M  END
$$$$
