LIG
     RDKit          3D

 47 49  0  0  0  0  0  0  0  0999 V2000
  -14.4370   10.2110  -31.9560 C   0  0  0  0  0  0  0  0  0  0  0  0
  -12.2000    8.8040  -27.8750 C   0  0  0  0  0  0  0  0  0  0  0  0
  -15.5160    8.3750  -26.8450 O   0  0  0  0  0  0  0  0  0  0  0  0
  -14.5850    9.1830  -27.3460 C   0  0  0  0  0  0  0  0  0  0  0  0
  -16.2990    8.8950  -25.7400 C   0  0  0  0  0  0  0  0  0  0  0  0
  -14.4720   10.3470  -27.0690 O   0  0  0  0  0  0  0  0  0  0  0  0
  -12.5070   10.5780  -30.3200 O   0  0  0  0  0  0  0  0  0  0  0  0
  -14.8180   10.9800  -29.5160 O   0  0  0  0  0  0  0  0  0  0  0  0
  -13.8920   10.2060  -30.2940 S   0  0  0  0  0  0  0  0  0  0  0  0
  -13.1040    7.6620  -30.3850 C   0  0  0  0  0  0  0  0  0  0  0  0
  -13.3200    6.4160  -29.5650 C   0  0  0  0  0  0  0  0  0  0  0  0
  -13.8430    6.9290  -28.2480 C   0  0  0  0  0  0  0  0  0  0  0  0
  -13.6290    8.4500  -28.2990 C   0  0  2  0  0  0  0  0  0  0  0  0
  -13.9620    8.6700  -29.7310 N   0  0  0  0  0  0  0  0  0  0  0  0
  -16.7560    8.8680  -18.0320 N   0  0  0  0  0  0  0  0  0  0  0  0
  -15.5330    9.2940  -17.8950 N   0  0  0  0  0  0  0  0  0  0  0  0
  -15.2660    9.9660  -19.0350 N   0  0  0  0  0  0  0  0  0  0  0  0
  -16.3420    9.9410  -19.8380 C   0  0  0  0  0  0  0  0  0  0  0  0
  -17.2900    9.2530  -19.2210 N   0  0  0  0  0  0  0  0  0  0  0  0
  -14.0010   11.0750  -20.4520 C   0  0  0  0  0  0  0  0  0  0  0  0
  -15.0520   11.1450  -21.4140 C   0  0  0  0  0  0  0  0  0  0  0  0
  -16.2400   10.5750  -21.1030 C   0  0  0  0  0  0  0  0  0  0  0  0
  -14.0580   10.5230  -19.2780 N   0  0  0  0  0  0  0  0  0  0  0  0
  -16.2842    9.3150  -24.5807 N   0  0  0  0  0  0  0  0  0  0  0  0
  -16.2695    9.7350  -23.4215 C   0  0  0  0  0  0  0  0  0  0  0  0
  -16.2547   10.1550  -22.2623 C   0  0  0  0  0  0  0  0  0  0  0  0
  -15.5367   10.2211  -31.9812 H   0  0  0  0  0  0  0  0  0  0  0  0
  -14.0503   11.1056  -32.4660 H   0  0  0  0  0  0  0  0  0  0  0  0
  -14.0668    9.3094  -32.4660 H   0  0  0  0  0  0  0  0  0  0  0  0
  -12.1366    8.8197  -26.7769 H   0  0  0  0  0  0  0  0  0  0  0  0
  -11.5027    8.0514  -28.2718 H   0  0  0  0  0  0  0  0  0  0  0  0
  -11.9347    9.7950  -28.2718 H   0  0  0  0  0  0  0  0  0  0  0  0
  -16.7775    9.7502  -26.2397 H   0  0  0  0  0  0  0  0  0  0  0  0
  -16.4562    7.8717  -25.3684 H   0  0  0  0  0  0  0  0  0  0  0  0
  -12.4576    7.7905  -31.2657 H   0  0  0  0  0  0  0  0  0  0  0  0
  -13.9399    7.3757  -31.0403 H   0  0  0  0  0  0  0  0  0  0  0  0
  -13.1378    5.3721  -29.8600 H   0  0  0  0  0  0  0  0  0  0  0  0
  -12.2905    6.4881  -29.1843 H   0  0  0  0  0  0  0  0  0  0  0  0
  -14.2826    6.3421  -27.4281 H   0  0  0  0  0  0  0  0  0  0  0  0
  -12.8450    6.8035  -27.8028 H   0  0  0  0  0  0  0  0  0  0  0  0
  -13.0431   11.5364  -20.7339 H   0  0  0  0  0  0  0  0  0  0  0  0
  -14.9015   11.6477  -22.3808 H   0  0  0  0  0  0  0  0  0  0  0  0
    0.0000    0.0000    0.0000 H   0  0  0  0  0  0  0  0  0  0  0  0
    0.0000    0.0000    0.0000 H   0  0  0  0  0  0  0  0  0  0  0  0
  -15.4667   10.4387  -23.6867 H   0  0  0  0  0  0  0  0  0  0  0  0
    0.0000    0.0000    0.0000 H   0  0  0  0  0  0  0  0  0  0  0  0
  -15.4519   10.8587  -22.5274 H   0  0  0  0  0  0  0  0  0  0  0  0
  4  3  1  0
  5  3  1  0
  6  4  2  0
  9  7  2  0
  9  1  1  0
  9  8  2  0
 10 11  1  0
 10 14  1  0
 11 12  1  0
 12 13  1  0
 13  2  1  6
 13 14  1  0
 13  4  1  0
 14  9  1  0
 15 16  2  0
 15 19  1  0
 16 17  1  0
 17 23  1  0
 17 18  1  0
 18 19  2  0
 18 22  1  0
 20 23  2  0
 20 21  1  0
 21 22  2  0
 24  5  1  0
 25 24  1  0
 26 25  1  0
 26 22  1  0
  1 27  1  0
  1 28  1  0
  1 29  1  0
  2 30  1  0
  2 31  1  0
  2 32  1  0
  5 33  1  0
  5 34  1  0
 10 35  1  0
 10 36  1  0
 11 37  1  0
 11 38  1  0
 12 39  1  0
 12 40  1  0
 20 41  1  0
 21 42  1  0
 24 43  1  0
 25 44  1  0
 25 45  1  0
 26 46  1  0
 26 47  1  0
M  END
